<?xml version="1.0" encoding="UTF-8"?>

<!-- generated on 2024-04-03 19:44:33.634079 by osmWebWizard.py v1_19_0+0000-baa66a0f364
<configuration>
    <net-file value="C:\Users\atp\Sumo\2024-04-03-19-44-07\osm.net.xml.gz"/>
    <output-trip-file value="C:\Users\atp\Sumo\2024-04-03-19-44-07\osm.bicycle.trips.xml"/>
    <route-file value="C:\Users\atp\Sumo\2024-04-03-19-44-07\osm.bicycle.rou.xml"/>
    <prefix value="bike"/>
    <trip-attributes value="departLane=&quot;best&quot;"/>
    <fringe-start-attributes value="departSpeed=&quot;max&quot;"/>
    <vehicle-class value="bicycle"/>
    <fringe-factor value="2"/>
    <vclass value="bicycle"/>
    <via-edge-types value="highway.motorway,highway.motorway_link,highway.trunk_link,highway.primary_link,highway.secondary_link,highway.tertiary_link"/>
    <max-distance value="8000.0"/>
    <remove-loops value="True"/>
    <validate value="True"/>
    <insertion-density value="6.0"/>
    <guiShape="bicycle"/>
</configuration>
-->

<!-- generated on 2024-04-03 19:44:29 by Eclipse SUMO duarouter Version 1.19.0
<configuration xmlns:xsi="http://www.w3.org/2001/XMLSchema-instance" xsi:noNamespaceSchemaLocation="http://sumo.dlr.de/xsd/duarouterConfiguration.xsd">

    <input>
        <net-file value="C:\Users\atp\Sumo\2024-04-03-19-44-07\osm.net.xml.gz"/>
        <route-files value="C:\Users\atp\Sumo\2024-04-03-19-44-07\osm.bicycle.trips.xml"/>
    </input>

    <output>
        <output-file value="C:\Users\atp\Sumo\2024-04-03-19-44-07\osm.bicycle.trips.xml.tmp"/>
        <alternatives-output value="NUL"/>
        <write-trips value="true"/>
    </output>

    <processing>
        <remove-loops value="true"/>
    </processing>

    <time>
        <begin value="0.0"/>
        <end value="3600.0"/>
    </time>

    <report>
        <no-warnings value="true"/>
        <ignore-errors value="true"/>
        <no-step-log value="true"/>
    </report>

</configuration>
-->

<routes xmlns:xsi="http://www.w3.org/2001/XMLSchema-instance" xsi:noNamespaceSchemaLocation="http://sumo.dlr.de/xsd/routes_file.xsd">
    <vType id="bike_bicycle" vClass="bicycle"/>
    <trip id="bike0" type="bike_bicycle" depart="0.00" departLane="best" from="226863628#1" to="1095193818#3"/>
    <trip id="bike1" type="bike_bicycle" depart="1.57" departLane="best" departSpeed="max" from="-507426081" to="-365261630#1"/>
    <trip id="bike2" type="bike_bicycle" depart="3.15" departLane="best" from="-339892522#0" to="26469029#1"/>
    <trip id="bike3" type="bike_bicycle" depart="4.72" departLane="best" from="653933185#5" to="-170336103#0"/>
    <trip id="bike4" type="bike_bicycle" depart="6.30" departLane="best" from="1013320812#1" to="-1153889648"/>
    <trip id="bike5" type="bike_bicycle" depart="7.87" departLane="best" departSpeed="max" from="-345751062#1" to="156641038#5"/>
    <trip id="bike6" type="bike_bicycle" depart="9.45" departLane="best" departSpeed="max" from="-1088449047" to="345750137#1"/>
    <trip id="bike7" type="bike_bicycle" depart="11.02" departLane="best" from="226986361#0" to="175782573#1"/>
    <trip id="bike8" type="bike_bicycle" depart="12.59" departLane="best" from="-345757517#1" to="20096722#0"/>
    <trip id="bike9" type="bike_bicycle" depart="14.17" departLane="best" from="-48452091#2" to="-1013012547"/>
    <trip id="bike10" type="bike_bicycle" depart="15.74" departLane="best" from="46922497#1" to="292074964#2"/>
    <trip id="bike11" type="bike_bicycle" depart="17.32" departLane="best" from="70848536#1" to="-244142656#1"/>
    <trip id="bike12" type="bike_bicycle" depart="18.89" departLane="best" from="882981167#3" to="930361147"/>
    <trip id="bike13" type="bike_bicycle" depart="20.47" departLane="best" from="5151621#1" to="-181409016#1"/>
    <trip id="bike14" type="bike_bicycle" depart="22.04" departLane="best" from="560686854#0" to="225014683#3"/>
    <trip id="bike15" type="bike_bicycle" depart="23.61" departLane="best" from="473440864" to="345760484#2"/>
    <trip id="bike16" type="bike_bicycle" depart="25.19" departLane="best" from="156641038#0" to="957045500#0"/>
    <trip id="bike17" type="bike_bicycle" depart="26.76" departLane="best" from="943037453#10" to="178872043#0"/>
    <trip id="bike18" type="bike_bicycle" depart="28.34" departLane="best" from="542060454#1" to="228607212#0"/>
    <trip id="bike19" type="bike_bicycle" depart="29.91" departLane="best" from="960796707#0" to="187844377#0"/>
    <trip id="bike20" type="bike_bicycle" depart="31.49" departLane="best" from="26299577#2" to="-1243065600#0"/>
    <trip id="bike21" type="bike_bicycle" depart="33.06" departLane="best" departSpeed="max" from="-350679716#1" to="-6227790#10"/>
    <trip id="bike22" type="bike_bicycle" depart="34.63" departLane="best" from="157482093#1" to="-432801747"/>
    <trip id="bike23" type="bike_bicycle" depart="36.21" departLane="best" from="175834155#3" to="-561190176#2"/>
    <trip id="bike24" type="bike_bicycle" depart="37.78" departLane="best" from="225014678#1" to="-996059494#1"/>
    <trip id="bike25" type="bike_bicycle" depart="39.36" departLane="best" from="-893397123#0" to="350679716#0"/>
    <trip id="bike26" type="bike_bicycle" depart="40.93" departLane="best" from="-46691296#1" to="812943307#1"/>
    <trip id="bike27" type="bike_bicycle" depart="42.50" departLane="best" from="362431411" to="226958380#6"/>
    <trip id="bike28" type="bike_bicycle" depart="44.08" departLane="best" from="-244142664#1" to="345760483#0"/>
    <trip id="bike29" type="bike_bicycle" depart="45.65" departLane="best" from="-244142635" to="1013320808#3"/>
    <trip id="bike30" type="bike_bicycle" depart="47.23" departLane="best" from="981324463" to="23840257#1"/>
    <trip id="bike31" type="bike_bicycle" depart="48.80" departLane="best" from="16763485#9" to="279381264#1"/>
    <trip id="bike32" type="bike_bicycle" depart="50.38" departLane="best" from="555816528#0" to="46041120#4"/>
    <trip id="bike33" type="bike_bicycle" depart="51.95" departLane="best" from="-355136903#10" to="116934432#6"/>
    <trip id="bike34" type="bike_bicycle" depart="53.52" departLane="best" from="625952813#1" to="-552894429#4"/>
    <trip id="bike35" type="bike_bicycle" depart="55.10" departLane="best" from="-345750079#0" to="858082474"/>
    <trip id="bike36" type="bike_bicycle" depart="56.67" departLane="best" from="6170178#3" to="730902534#0"/>
    <trip id="bike37" type="bike_bicycle" depart="58.25" departLane="best" from="-229716249#0" to="1025625613#1"/>
    <trip id="bike38" type="bike_bicycle" depart="59.82" departLane="best" departSpeed="max" from="70848536#0" to="1194010784#1"/>
    <trip id="bike39" type="bike_bicycle" depart="61.40" departLane="best" from="-46041189#0" to="-473440864"/>
    <trip id="bike40" type="bike_bicycle" depart="62.97" departLane="best" from="169557979#1" to="-544509211#2"/>
    <trip id="bike41" type="bike_bicycle" depart="64.54" departLane="best" from="178872042#14" to="705835416#1"/>
    <trip id="bike42" type="bike_bicycle" depart="66.12" departLane="best" departSpeed="max" from="-980511117#2" to="-362040628#4"/>
    <trip id="bike43" type="bike_bicycle" depart="67.69" departLane="best" from="996059494#0" to="156793869#5"/>
    <trip id="bike44" type="bike_bicycle" depart="69.27" departLane="best" from="-169558503#1" to="-1243327299"/>
    <trip id="bike45" type="bike_bicycle" depart="70.84" departLane="best" from="181411642" to="230298414#2"/>
    <trip id="bike46" type="bike_bicycle" depart="72.42" departLane="best" from="436257722#2" to="1091859871#1"/>
    <trip id="bike47" type="bike_bicycle" depart="73.99" departLane="best" from="-127729934#1" to="1013320818#0"/>
    <trip id="bike48" type="bike_bicycle" depart="75.56" departLane="best" from="991684649#3" to="169557980#1"/>
    <trip id="bike49" type="bike_bicycle" depart="77.14" departLane="best" from="943611678#2" to="625143851"/>
    <trip id="bike50" type="bike_bicycle" depart="78.71" departLane="best" from="-1016426342#2" to="345750137#3"/>
    <trip id="bike51" type="bike_bicycle" depart="80.29" departLane="best" from="244142638" to="170591789#5"/>
    <trip id="bike52" type="bike_bicycle" depart="81.86" departLane="best" from="-461366194#6" to="239965046#3"/>
    <trip id="bike53" type="bike_bicycle" depart="83.44" departLane="best" from="-181416976#1" to="111489561#13"/>
    <trip id="bike54" type="bike_bicycle" depart="85.01" departLane="best" from="1088449038#11" to="-943027546#1"/>
    <trip id="bike55" type="bike_bicycle" depart="86.58" departLane="best" from="6170121#0" to="24733239#2"/>
    <trip id="bike56" type="bike_bicycle" depart="88.16" departLane="best" from="1221672097#1" to="-28801511#1"/>
    <trip id="bike57" type="bike_bicycle" depart="89.73" departLane="best" from="705356530#1" to="657272865"/>
    <trip id="bike58" type="bike_bicycle" depart="91.31" departLane="best" from="555816541#2" to="236571102#2"/>
    <trip id="bike59" type="bike_bicycle" depart="92.88" departLane="best" from="537828718#0" to="244142643"/>
    <trip id="bike60" type="bike_bicycle" depart="94.46" departLane="best" from="351002183#2" to="17067083#0"/>
    <trip id="bike61" type="bike_bicycle" depart="96.03" departLane="best" from="363751939" to="169557985#5"/>
    <trip id="bike62" type="bike_bicycle" depart="97.60" departLane="best" from="-1001822976#0" to="-781420941"/>
    <trip id="bike63" type="bike_bicycle" depart="99.18" departLane="best" departSpeed="max" from="-1033579509#1" to="187844373#1"/>
    <trip id="bike64" type="bike_bicycle" depart="100.75" departLane="best" from="6227790#1" to="-561168708#1"/>
    <trip id="bike65" type="bike_bicycle" depart="102.33" departLane="best" from="589705895#0" to="-138943448#3"/>
    <trip id="bike66" type="bike_bicycle" depart="103.90" departLane="best" from="617979145#7" to="-863277517#13"/>
    <trip id="bike67" type="bike_bicycle" depart="105.47" departLane="best" from="-16370002#0" to="13858883#0"/>
    <trip id="bike68" type="bike_bicycle" depart="107.05" departLane="best" from="138943452#3" to="380423729#5"/>
    <trip id="bike69" type="bike_bicycle" depart="108.62" departLane="best" from="-355136903#7" to="226958393#1"/>
    <trip id="bike71" type="bike_bicycle" depart="111.77" departLane="best" from="46041189#1" to="657272898#1"/>
    <trip id="bike72" type="bike_bicycle" depart="113.35" departLane="best" from="1013320818#1" to="-355136903#3"/>
    <trip id="bike73" type="bike_bicycle" depart="114.92" departLane="best" from="156793846#3" to="345760484#3"/>
    <trip id="bike74" type="bike_bicycle" depart="116.49" departLane="best" from="-29015115" to="-690638104#0"/>
    <trip id="bike75" type="bike_bicycle" depart="118.07" departLane="best" from="-991684648#0" to="244142638"/>
    <trip id="bike76" type="bike_bicycle" depart="119.64" departLane="best" from="1027369934" to="-16181909"/>
    <trip id="bike77" type="bike_bicycle" depart="121.22" departLane="best" from="-19725473#2" to="-369183552#5"/>
    <trip id="bike78" type="bike_bicycle" depart="122.79" departLane="best" departSpeed="max" from="-690421713" to="20096593#5"/>
    <trip id="bike79" type="bike_bicycle" depart="124.37" departLane="best" from="-355136903#7" to="-362040645#1"/>
    <trip id="bike80" type="bike_bicycle" depart="125.94" departLane="best" from="-138943458#1" to="-231086603#3"/>
    <trip id="bike81" type="bike_bicycle" depart="127.51" departLane="best" from="-355136903#10" to="731835156#4"/>
    <trip id="bike83" type="bike_bicycle" depart="130.66" departLane="best" from="359985656#1" to="254622402#2"/>
    <trip id="bike84" type="bike_bicycle" depart="132.24" departLane="best" departSpeed="max" from="-345750100#1" to="226986359#3"/>
    <trip id="bike85" type="bike_bicycle" depart="133.81" departLane="best" from="-7973120#0" to="186376159#2"/>
    <trip id="bike86" type="bike_bicycle" depart="135.39" departLane="best" from="111489561#16" to="482038388#0"/>
    <trip id="bike87" type="bike_bicycle" depart="136.96" departLane="best" from="473440867" to="339892522#0"/>
    <trip id="bike88" type="bike_bicycle" depart="138.53" departLane="best" from="175718552#2" to="111489547#14"/>
    <trip id="bike89" type="bike_bicycle" depart="140.11" departLane="best" departSpeed="max" from="1013320821" to="1226175090"/>
    <trip id="bike90" type="bike_bicycle" depart="141.68" departLane="best" from="30303387#0" to="259281586#3"/>
    <trip id="bike91" type="bike_bicycle" depart="143.26" departLane="best" from="966590151#3" to="181409034#4"/>
    <trip id="bike93" type="bike_bicycle" depart="146.41" departLane="best" from="960796707#0" to="-48452091#1"/>
    <trip id="bike94" type="bike_bicycle" depart="147.98" departLane="best" from="-265483112#1" to="1160426461#3"/>
    <trip id="bike95" type="bike_bicycle" depart="149.55" departLane="best" from="1013320812#1" to="-561190177"/>
    <trip id="bike96" type="bike_bicycle" depart="151.13" departLane="best" from="380600532" to="781420942#2"/>
    <trip id="bike97" type="bike_bicycle" depart="152.70" departLane="best" from="1058985671#0" to="-625952813#3"/>
    <trip id="bike98" type="bike_bicycle" depart="154.28" departLane="best" from="-16182736#1" to="127729928#3"/>
    <trip id="bike100" type="bike_bicycle" depart="157.43" departLane="best" from="943037453#16" to="7982500#0"/>
    <trip id="bike101" type="bike_bicycle" depart="159.00" departLane="best" from="560686857#5" to="-250660621#1"/>
    <trip id="bike102" type="bike_bicycle" depart="160.57" departLane="best" departSpeed="max" from="1153889648" to="-355143061#0"/>
    <trip id="bike103" type="bike_bicycle" depart="162.15" departLane="best" departSpeed="max" from="-985550636" to="138943449#4"/>
    <trip id="bike104" type="bike_bicycle" depart="163.72" departLane="best" from="943037453#12" to="967940526"/>
    <trip id="bike105" type="bike_bicycle" depart="165.30" departLane="best" departSpeed="max" from="-46041231" to="-473440866"/>
    <trip id="bike106" type="bike_bicycle" depart="166.87" departLane="best" from="1088449038#9" to="1091859873#3"/>
    <trip id="bike107" type="bike_bicycle" depart="168.44" departLane="best" from="882981167#3" to="991684648#0"/>
    <trip id="bike108" type="bike_bicycle" depart="170.02" departLane="best" from="16763485#1" to="345750107#1"/>
    <trip id="bike109" type="bike_bicycle" depart="171.59" departLane="best" from="232251919#3" to="-626604710#8"/>
    <trip id="bike110" type="bike_bicycle" depart="173.17" departLane="best" from="943037453#14" to="19526987#0"/>
    <trip id="bike111" type="bike_bicycle" depart="174.74" departLane="best" from="156793842#0" to="359983959#0"/>
    <trip id="bike112" type="bike_bicycle" depart="176.32" departLane="best" from="1250375004#1" to="19725490#0"/>
    <trip id="bike113" type="bike_bicycle" depart="177.89" departLane="best" from="1016426336#5" to="6168350#0"/>
    <trip id="bike114" type="bike_bicycle" depart="179.46" departLane="best" from="-236570790#5" to="943037452#0"/>
    <trip id="bike115" type="bike_bicycle" depart="181.04" departLane="best" from="-157482498#0" to="30303388#4"/>
    <trip id="bike116" type="bike_bicycle" depart="182.61" departLane="best" from="-181411650#0" to="264530758"/>
    <trip id="bike117" type="bike_bicycle" depart="184.19" departLane="best" from="-355365986" to="-222271724"/>
    <trip id="bike119" type="bike_bicycle" depart="187.34" departLane="best" from="181409063#5" to="229688986#0"/>
    <trip id="bike120" type="bike_bicycle" depart="188.91" departLane="best" from="1013320802#1" to="19725490#6"/>
    <trip id="bike121" type="bike_bicycle" depart="190.48" departLane="best" from="138943452#1" to="8032355#5"/>
    <trip id="bike122" type="bike_bicycle" depart="192.06" departLane="best" from="-30303388#9" to="345750093#1"/>
    <trip id="bike123" type="bike_bicycle" depart="193.63" departLane="best" from="362040625#0" to="1025625613#2"/>
    <trip id="bike124" type="bike_bicycle" depart="195.21" departLane="best" from="239965045#0" to="-653933185#0"/>
    <trip id="bike125" type="bike_bicycle" depart="196.78" departLane="best" from="626604710#1" to="-362040645#2"/>
    <trip id="bike126" type="bike_bicycle" depart="198.36" departLane="best" from="-138943462#0" to="119333811#2"/>
    <trip id="bike127" type="bike_bicycle" depart="199.93" departLane="best" from="-996059495#2" to="-991684649#1"/>
    <trip id="bike128" type="bike_bicycle" depart="201.50" departLane="best" from="-138943463#0" to="-355143057#3"/>
    <trip id="bike129" type="bike_bicycle" depart="203.08" departLane="best" departSpeed="max" from="-46041231" to="8032146"/>
    <trip id="bike130" type="bike_bicycle" depart="204.65" departLane="best" from="6228383#1" to="670397567"/>
    <trip id="bike131" type="bike_bicycle" depart="206.23" departLane="best" from="-882846538#2" to="244142660"/>
    <trip id="bike132" type="bike_bicycle" depart="207.80" departLane="best" from="55065902#1" to="30303388#5"/>
    <trip id="bike133" type="bike_bicycle" depart="209.38" departLane="best" from="19526831#5" to="975030820#1"/>
    <trip id="bike134" type="bike_bicycle" depart="210.95" departLane="best" from="229688987#0" to="-1013320822"/>
    <trip id="bike135" type="bike_bicycle" depart="212.52" departLane="best" from="5151621#2" to="-653121771"/>
    <trip id="bike136" type="bike_bicycle" depart="214.10" departLane="best" from="232251919#3" to="-8161736#3"/>
    <trip id="bike137" type="bike_bicycle" depart="215.67" departLane="best" from="226863628#0" to="205508466#2"/>
    <trip id="bike138" type="bike_bicycle" depart="217.25" departLane="best" from="181409043#2" to="180870218#2"/>
    <trip id="bike139" type="bike_bicycle" depart="218.82" departLane="best" from="-492547872#2" to="-225014692#1"/>
    <trip id="bike140" type="bike_bicycle" depart="220.40" departLane="best" from="28801553#5" to="-345757523#13"/>
    <trip id="bike141" type="bike_bicycle" depart="221.97" departLane="best" from="-225014655#4" to="-549336741"/>
    <trip id="bike142" type="bike_bicycle" depart="223.54" departLane="best" from="116934432#1" to="731835156#4"/>
    <trip id="bike143" type="bike_bicycle" depart="225.12" departLane="best" from="555816540" to="-175782573#2"/>
    <trip id="bike144" type="bike_bicycle" depart="226.69" departLane="best" departSpeed="max" from="1013320821" to="-561168709"/>
    <trip id="bike145" type="bike_bicycle" depart="228.27" departLane="best" departSpeed="max" from="-1001823055" to="439381430"/>
    <trip id="bike146" type="bike_bicycle" depart="229.84" departLane="best" from="225014683#2" to="-543786575#1"/>
    <trip id="bike147" type="bike_bicycle" depart="231.41" departLane="best" from="345703730#2" to="178872042#8"/>
    <trip id="bike148" type="bike_bicycle" depart="232.99" departLane="best" from="1226175099#1" to="-1013533138"/>
    <trip id="bike149" type="bike_bicycle" depart="234.56" departLane="best" from="147479155" to="679378129#1"/>
    <trip id="bike150" type="bike_bicycle" depart="236.14" departLane="best" from="683484222#4" to="-175834145#5"/>
    <trip id="bike151" type="bike_bicycle" depart="237.71" departLane="best" from="-55069412#3" to="19725473#1"/>
    <trip id="bike152" type="bike_bicycle" depart="239.29" departLane="best" from="229746983#0" to="-226863633#5"/>
    <trip id="bike153" type="bike_bicycle" depart="240.86" departLane="best" from="589705895#4" to="708895690#1"/>
    <trip id="bike154" type="bike_bicycle" depart="242.43" departLane="best" from="440334675#6" to="625143851"/>
    <trip id="bike155" type="bike_bicycle" depart="244.01" departLane="best" from="670397567" to="-35397222#0"/>
    <trip id="bike156" type="bike_bicycle" depart="245.58" departLane="best" from="380592104#0" to="-181411650#2"/>
    <trip id="bike157" type="bike_bicycle" depart="247.16" departLane="best" from="-369183552#1" to="285498075#1"/>
    <trip id="bike158" type="bike_bicycle" depart="248.73" departLane="best" departSpeed="max" from="-991684648#2" to="229688986#8"/>
    <trip id="bike159" type="bike_bicycle" depart="250.31" departLane="best" from="232251919#2" to="7998645#11"/>
    <trip id="bike160" type="bike_bicycle" depart="251.88" departLane="best" departSpeed="max" from="581233912" to="963700344#0"/>
    <trip id="bike161" type="bike_bicycle" depart="253.45" departLane="best" from="-492547872#3" to="679378124"/>
    <trip id="bike162" type="bike_bicycle" depart="255.03" departLane="best" from="1073177424" to="351002183#10"/>
    <trip id="bike163" type="bike_bicycle" depart="256.60" departLane="best" from="-679675293" to="7998645#2"/>
    <trip id="bike164" type="bike_bicycle" depart="258.18" departLane="best" departSpeed="max" from="46041191" to="626604713#0"/>
    <trip id="bike165" type="bike_bicycle" depart="259.75" departLane="best" from="-492547872#3" to="-552167779#1"/>
    <trip id="bike166" type="bike_bicycle" depart="261.33" departLane="best" from="386613733" to="-18677910#3"/>
    <trip id="bike167" type="bike_bicycle" depart="262.90" departLane="best" from="597936496#7" to="6228005#5"/>
    <trip id="bike168" type="bike_bicycle" depart="264.47" departLane="best" from="-345757523#18" to="-552894429#6"/>
    <trip id="bike169" type="bike_bicycle" depart="266.05" departLane="best" from="1091859873#0" to="-677862036#2"/>
    <trip id="bike170" type="bike_bicycle" depart="267.62" departLane="best" from="440334675#10" to="-380423729#0"/>
    <trip id="bike171" type="bike_bicycle" depart="269.20" departLane="best" from="-1064807195" to="339707395#3"/>
    <trip id="bike172" type="bike_bicycle" depart="270.77" departLane="best" departSpeed="max" from="-664902508#1" to="-6271239#1"/>
    <trip id="bike173" type="bike_bicycle" depart="272.35" departLane="best" from="-943037449#2" to="561190178#1"/>
    <trip id="bike174" type="bike_bicycle" depart="273.92" departLane="best" from="226958380#1" to="1033579509#1"/>
    <trip id="bike175" type="bike_bicycle" depart="275.49" departLane="best" departSpeed="max" from="964058815" to="170591789#1"/>
    <trip id="bike176" type="bike_bicycle" depart="277.07" departLane="best" from="7982502" to="-205508466#2"/>
    <trip id="bike177" type="bike_bicycle" depart="278.64" departLane="best" from="943037453#8" to="-28801511#0"/>
    <trip id="bike178" type="bike_bicycle" depart="280.22" departLane="best" from="943027530#0" to="55069412#4"/>
    <trip id="bike179" type="bike_bicycle" depart="281.79" departLane="best" from="-181409063#1" to="111489561#11"/>
    <trip id="bike180" type="bike_bicycle" depart="283.37" departLane="best" departSpeed="max" from="30021479" to="-708976828#0"/>
    <trip id="bike181" type="bike_bicycle" depart="284.94" departLane="best" from="18677816#0" to="157479048#1"/>
    <trip id="bike182" type="bike_bicycle" depart="286.51" departLane="best" departSpeed="max" from="-954170413" to="187844366#1"/>
    <trip id="bike183" type="bike_bicycle" depart="288.09" departLane="best" from="435552190#0" to="339707395#3"/>
    <trip id="bike184" type="bike_bicycle" depart="289.66" departLane="best" from="-1001822981#0" to="-7973122#1"/>
    <trip id="bike185" type="bike_bicycle" depart="291.24" departLane="best" from="156793842#2" to="345750121#1"/>
    <trip id="bike187" type="bike_bicycle" depart="294.38" departLane="best" departSpeed="max" from="-858082464" to="157482093#0"/>
    <trip id="bike188" type="bike_bicycle" depart="295.96" departLane="best" from="-230979882#6" to="832473918#1"/>
    <trip id="bike189" type="bike_bicycle" depart="297.53" departLane="best" from="-6234788#0" to="597934786#2"/>
    <trip id="bike190" type="bike_bicycle" depart="299.11" departLane="best" from="28817350#4" to="-657272871"/>
    <trip id="bike191" type="bike_bicycle" depart="300.68" departLane="best" from="-606166183" to="1082390889"/>
    <trip id="bike192" type="bike_bicycle" depart="302.26" departLane="best" from="991198939#1" to="-626604710#14"/>
    <trip id="bike193" type="bike_bicycle" depart="303.83" departLane="best" departSpeed="max" from="-220574070#6" to="1091144610#1"/>
    <trip id="bike194" type="bike_bicycle" depart="305.40" departLane="best" from="7998645#10" to="265466992#0"/>
    <trip id="bike195" type="bike_bicycle" depart="306.98" departLane="best" from="683484221#0" to="-226986352#1"/>
    <trip id="bike196" type="bike_bicycle" depart="308.55" departLane="best" from="561168708#7" to="175836237"/>
    <trip id="bike197" type="bike_bicycle" depart="310.13" departLane="best" departSpeed="max" from="-1001822975" to="-606162774"/>
    <trip id="bike198" type="bike_bicycle" depart="311.70" departLane="best" from="1017601805" to="19570360#1"/>
    <trip id="bike199" type="bike_bicycle" depart="313.28" departLane="best" from="-229688991#1" to="1221672092"/>
    <trip id="bike200" type="bike_bicycle" depart="314.85" departLane="best" from="1054520443#1" to="-355143061#0"/>
    <trip id="bike201" type="bike_bicycle" depart="316.42" departLane="best" from="111489561#3" to="708976829"/>
    <trip id="bike202" type="bike_bicycle" depart="318.00" departLane="best" from="440334675#6" to="-259280134#2"/>
    <trip id="bike203" type="bike_bicycle" depart="319.57" departLane="best" from="-16181894" to="160054177#2"/>
    <trip id="bike204" type="bike_bicycle" depart="321.15" departLane="best" from="224039198#1" to="-896286605#0"/>
    <trip id="bike205" type="bike_bicycle" depart="322.72" departLane="best" from="5151734#1" to="362040635#0"/>
    <trip id="bike206" type="bike_bicycle" depart="324.30" departLane="best" from="239965046#2" to="-369183552#5"/>
    <trip id="bike208" type="bike_bicycle" depart="327.44" departLane="best" from="-369183553#0" to="-1243065600#1"/>
    <trip id="bike209" type="bike_bicycle" depart="329.02" departLane="best" from="560686862" to="-158422205"/>
    <trip id="bike210" type="bike_bicycle" depart="330.59" departLane="best" from="1007665213#0" to="230979882#3"/>
    <trip id="bike211" type="bike_bicycle" depart="332.17" departLane="best" from="28592969" to="-29015339#1"/>
    <trip id="bike212" type="bike_bicycle" depart="333.74" departLane="best" from="1194010783#1" to="-460727511#1"/>
    <trip id="bike213" type="bike_bicycle" depart="335.32" departLane="best" from="-229716249#3" to="-1008653060"/>
    <trip id="bike214" type="bike_bicycle" depart="336.89" departLane="best" from="345757517#3" to="439381427#0"/>
    <trip id="bike215" type="bike_bicycle" depart="338.46" departLane="best" departSpeed="max" from="-181409037#6" to="1095193817#0"/>
    <trip id="bike216" type="bike_bicycle" depart="340.04" departLane="best" from="24733230#5" to="-943027539#2"/>
    <trip id="bike217" type="bike_bicycle" depart="341.61" departLane="best" from="13853510#0" to="-127729928#18"/>
    <trip id="bike218" type="bike_bicycle" depart="343.19" departLane="best" from="-380423729#6" to="597934787#1"/>
    <trip id="bike219" type="bike_bicycle" depart="344.76" departLane="best" from="1088449043#1" to="528897624"/>
    <trip id="bike220" type="bike_bicycle" depart="346.34" departLane="best" from="236570786" to="980511119"/>
    <trip id="bike221" type="bike_bicycle" depart="347.91" departLane="best" departSpeed="max" from="181411654#0" to="882981170#3"/>
    <trip id="bike222" type="bike_bicycle" depart="349.48" departLane="best" from="653125304" to="226959766"/>
    <trip id="bike223" type="bike_bicycle" depart="351.06" departLane="best" from="28817350#0" to="156641038#2"/>
    <trip id="bike224" type="bike_bicycle" depart="352.63" departLane="best" from="543786575#0" to="175836237"/>
    <trip id="bike225" type="bike_bicycle" depart="354.21" departLane="best" from="-664902504#1" to="355143063#2"/>
    <trip id="bike226" type="bike_bicycle" depart="355.78" departLane="best" from="1091859875#1" to="-537691920#2"/>
    <trip id="bike227" type="bike_bicycle" depart="357.35" departLane="best" from="-380370781#1" to="236570790#0"/>
    <trip id="bike228" type="bike_bicycle" depart="358.93" departLane="best" from="-355136903#7" to="165370882#0"/>
    <trip id="bike229" type="bike_bicycle" depart="360.50" departLane="best" from="205508466#2" to="-561168708#0"/>
    <trip id="bike230" type="bike_bicycle" depart="362.08" departLane="best" from="156641030#4" to="-589705895#3"/>
    <trip id="bike231" type="bike_bicycle" depart="363.65" departLane="best" from="-492547869" to="760603101#0"/>
    <trip id="bike232" type="bike_bicycle" depart="365.23" departLane="best" from="-156793847#4" to="-229746983#3"/>
    <trip id="bike233" type="bike_bicycle" depart="366.80" departLane="best" from="-355143059#0" to="28850118"/>
    <trip id="bike234" type="bike_bicycle" depart="368.37" departLane="best" from="265466994" to="140182471#3"/>
    <trip id="bike235" type="bike_bicycle" depart="369.95" departLane="best" from="991702326" to="-175718552#1"/>
    <trip id="bike236" type="bike_bicycle" depart="371.52" departLane="best" departSpeed="max" from="1007665216" to="-345760480#3"/>
    <trip id="bike238" type="bike_bicycle" depart="374.67" departLane="best" from="178872042#11" to="29015104#2"/>
    <trip id="bike239" type="bike_bicycle" depart="376.25" departLane="best" departSpeed="max" from="561190188" to="392745312"/>
    <trip id="bike240" type="bike_bicycle" depart="377.82" departLane="best" from="943037453#6" to="-1008877026"/>
    <trip id="bike241" type="bike_bicycle" depart="379.39" departLane="best" departSpeed="max" from="-760603101#1" to="362436057#0"/>
    <trip id="bike242" type="bike_bicycle" depart="380.97" departLane="best" from="-561190167#1" to="-90070039"/>
    <trip id="bike243" type="bike_bicycle" depart="382.54" departLane="best" from="1013320802#0" to="355370659#1"/>
    <trip id="bike244" type="bike_bicycle" depart="384.12" departLane="best" from="-158071181#2" to="225014683#0"/>
    <trip id="bike245" type="bike_bicycle" depart="385.69" departLane="best" from="-345757517#2" to="-362040635#0"/>
    <trip id="bike246" type="bike_bicycle" depart="387.27" departLane="best" departSpeed="max" from="1020350415" to="-1153887703"/>