<?xml version="1.0" encoding="UTF-8"?>

<!-- generated on 2024-04-03 19:44:59.114940 by osmWebWizard.py v1_19_0+0000-baa66a0f364
<configuration>
    <net-file value="C:\Users\atp\Sumo\2024-04-03-19-44-07\osm.net.xml.gz"/>
    <output-trip-file value="C:\Users\atp\Sumo\2024-04-03-19-44-07\osm.pedestrian.trips.xml"/>
    <route-file value="C:\Users\atp\Sumo\2024-04-03-19-44-07\osm.pedestrian.rou.xml"/>
    <pedestrians value="True"/>
    <prefix value="ped"/>
    <vehicle-class value="pedestrian"/>
    <fringe-factor value="1"/>
    <max-distance value="2000.0"/>
    <insertion-density value="10.0"/>
</configuration>
-->

<!-- generated on 2024-04-03 19:44:48 by Eclipse SUMO duarouter Version 1.19.0
<configuration xmlns:xsi="http://www.w3.org/2001/XMLSchema-instance" xsi:noNamespaceSchemaLocation="http://sumo.dlr.de/xsd/duarouterConfiguration.xsd">

    <input>
        <net-file value="C:\Users\atp\Sumo\2024-04-03-19-44-07\osm.net.xml.gz"/>
        <route-files value="C:\Users\atp\Sumo\2024-04-03-19-44-07\osm.pedestrian.trips.xml"/>
    </input>

    <output>
        <output-file value="C:\Users\atp\Sumo\2024-04-03-19-44-07\osm.pedestrian.rou.xml"/>
        <alternatives-output value="NUL"/>
    </output>

    <time>
        <begin value="0.0"/>
        <end value="3600.0"/>
    </time>

    <report>
        <no-warnings value="true"/>
        <ignore-errors value="true"/>
        <no-step-log value="true"/>
    </report>

</configuration>
-->

<routes xmlns:xsi="http://www.w3.org/2001/XMLSchema-instance" xsi:noNamespaceSchemaLocation="http://sumo.dlr.de/xsd/routes_file.xsd">
    <vType id="ped_pedestrian" vClass="pedestrian"/>
    <person id="ped1" type="ped_pedestrian" depart="1.09">
        <walk edges="507521702#0 -507521703 226958381#1 -507426075 507426079#1 507426079#0 -170591789#4 -170591789#5 170591790#1 170591790#0 116934436#2 116934436#3 1058926754#1 1113331794#5 6269696#5 6269696#6 6269696#7 6269696#8 -116934432#0 -116934432#1 -116934432#5 345750672#1 345750672#0 345750673"/>
    </person>
    <person id="ped2" type="ped_pedestrian" depart="2.17">
        <walk edges="858082470#2 858082470#3 279381243#1 279381243#0 355370658#1 6272461#6 6272461#5 6272461#4 6272461#3 6272461#2 6272461#1 6272461#0 492547870#2 492547870#0 216613208#2 181461570#0 1133523601 181483887#3 181483887#2 181483887#1 -181483889"/>
    </person>
    <person id="ped3" type="ped_pedestrian" depart="3.26">
        <walk edges="1138616920#2 1138616920#3 1138616916#3 1138616919#2 1138616919#1 1138616917#0 1138616911#6 -127729928#1 -127729926#1 -436257726 -228053938#0 -228053938#1 495076875 97296544#2 222271723 339902907 339706832#0 -225014683#4 -225014683#3 -380423729#5 -380423729#4 -380423729#3 -380423729#2 -380423729#1 567506056#1 643485455 657272909 657272912 554032242#7 554032242#6 1126570766 -1149519338#0 -1149519338#1 -1149519338#2 -1149519338#3"/>
    </person>
    <person id="ped4" type="ped_pedestrian" depart="4.34">
        <walk edges="-1095193818#0 1095193818#3 -1095193817#0 -1095193817#1 -1095193817#2 1051242079 1178270410#1 1178270410#0 -362040645#0 1079708590#1 19526831#1 19526831#3 19526831#4 19526831#5 19526831#6 231086598#2 1149399002#0 1149399002#1 1149399002#2 216613208#0 216613208#1 216613208#2 492547870#0 492547870#2 507426244#2 -507426244#3"/>
    </person>
    <person id="ped6" type="ped_pedestrian" depart="6.51">
        <walk edges="1024278924 345750139#5 -345750139#1"/>
    </person>
    <person id="ped7" type="ped_pedestrian" depart="7.60">
        <walk edges="967932785 181461567#0 -138943453#0 -1149399001#1 -1149399001#0 -1013012547 976896107#4 976896107#3 976896107#2 1020365367#6 1019977072#5 887864519#1 887864519#2 1020365367#9"/>
    </person>
    <person id="ped8" type="ped_pedestrian" depart="8.69">
        <walk edges="708976830 340950641#3 340950641#4 340950641#5 340950641#6 340950641#7 340950641#8 1013320802#0 1013320807 1013320818#0 1243065589#0 355285170#2 1112266384#1 1112266384#2 1112266385#1 1112266385#2 1112266386#1 1111709096#1 1111709096#0 1111709097 -5151626 -355136903#7 -355136903#8 -355136903#9 -355136903#10 -355136903#11 -355136903#13 6168060 6168059#1 -810694956 5170375 5170374 1017601831#1 1017601832#1 1017601833#1 1017601833#0 1017601834 -1017601828 552894901#0 1232718635 1232718638#1 1232718638#0 552895818#1 552895818#0 1232718639 1232718640#1 1232718640#0 226863629 552167736#0 1095193818#3 -1095193817#0 -1095193817#1 -1095193817#2 -1095193817#4 -552167723#0 -552167723#3 -362924088#0 -362924088#1 1071670553#0 1071670553#1 362431411 -943037452#2 -943037452#1 -943037452#0 -943037449#2 -943037449#1 -943037449#0 943037453#17 -943037453#16 -943037453#15 -943037453#14 -943037453#13 236571102#0 236571102#1 236571102#2 236571102#3 236571102#4 235965687#0 235965687#1"/>
    </person>
    <person id="ped9" type="ped_pedestrian" depart="9.77">
        <walk edges="169558503#1 1243065581#1 12294769 12293791#1 1091144610#0 1243275294#2 1243275294#3 1243275295 1243275296#0 -355136903#13 6168060 6168059#1 -810694956 5170375 5170374 1017601831#1 1017601832#1 1017601833#1 1017601833#0 1017601834 -1017601828 552894901#0 1232718635 1232718638#1 1232718638#0 552895818#1 552895818#0 1232718639 1232718640#1 1232718640#0 226863629 552167736#0 1095193818#3 -1095193817#0 -1095193817#1 -1095193817#2 1051242079 1178270410#1 1178270410#0 -362040645#0 1079708590#1 1079708588 953946691#1 953946690#1 953946688#1 953946686#1 781420009#1 999605843 157480363#0 157480363#1 157480363#2 999605837 999605838 781957951#2 953297246#3 953297246#2 953298667#0 953298667#1 -1008074583 -181409048#1 -181409037#0 -181409016#1 -181409016#2 6227790#9 6227790#8 6227790#7 6227790#5 -6227790#4 981250463#0 981250463#1 981250466 981250461#2"/>
    </person>
    <person id="ped10" type="ped_pedestrian" depart="10.86">
        <walk edges="1091144610#0 1243275294#2 1243275294#3 1243275295 1243275296#0 -355136903#13 6168060 6168059#1 -810694956 5170375 5170374 1017601831#1 1017601832#1 1017601833#1 1017601833#0 1017601834 -1017601828 552894901#0 1232718635 1232718638#1 1232718638#0 552895818#1 552895818#0 1232718639 1232718640#1 1232718640#0 226863629 552167736#0 1095193818#3 -1095193817#0 -1095193817#1 -1095193817#2 1051242079 1178270410#1 1178270410#0 -362040645#0 1079708590#1 1079708588 953946691#1 953946690#1 953946688#1 953946686#1 781420009#1 999605843 157480363#0 157480363#1 157480363#2 999605837 999605838 781957951#2 953297246#3 953297246#2 953298667#0 953298667#1 -1008074583 -181409048#1 -181409037#0 -181409037#1 -181409037#2 181409037#3"/>
    </person>
    <person id="ped11" type="ped_pedestrian" depart="11.94">
        <walk edges="753712996 548188249#2 548188249#3 548188249#4 548188249#5 548188249#6 544509211#1 732484194#1 732484192#1 732484192#0 345750123#3 345750137#5 -345750137#4 -345750137#3 -345750137#2 -345750137#1 -345750137#0 345750129#1 345750129#0 -345750139#3 -1150235333 138943452#3 138943452#1 138943452#0 1013012547 996059494#2 -956711835#1 -956711835#0 19526831#1 1079708588 953946691#1 953946690#1 953946688#1 953946686#1 953946686#0 953946685#1 953946684 846926820 220846792#1 220846795 220846794#0 220846793#2 220846533#1"/>
    </person>
    <person id="ped13" type="ped_pedestrian" depart="14.11">
        <walk edges="-181409043#1 -181409033#0 -181409034#4 6227790#9 -181409016#2 -181409016#1 -181409037#0 -181409048#1 -1008074583 953298667#1 953298667#0 953297246#2 781957954#2 781957954#1 781957952#1 781957955#3 781957955#2 626610573#2 626610573#1 626610573#0 781957947#1 626610564#1 157907226#2 157907226#1 1065116178#1 1065116175#3 1065116175#2 1065116175#1 1000779886#0 1000779886#1 1000779886#2 955313308#2 955313308#3 1078799822#1 1078799822#0 -943037454#2 -943037454#1 187844363 236570790#0 -236570790#1 -236570790#2 930361147 -653933185#0"/>
    </person>
    <person id="ped14" type="ped_pedestrian" depart="15.20">
        <walk edges="-226958391#2 492547870#2 492547870#0 216613208#2 216613208#1 216613208#0 1149399002#2 1149399002#1 1149399002#0 231086598#2 19526831#6 19526831#5 19526831#4 19526831#3 19526831#1 1079708588 1079708589#1 1079708589#0 609935510#4 609935510#2 609935510#0 -362924088#1 1071670553#0 1071670553#1 362431411 -943037452#2 -943037452#1 -943037452#0 -943037449#2 -943037449#1 -943037449#0 943037453#17 -178872043#3 -178872043#4 1016539369#2 626604712#1 966590146#0 958856730#3 1016426335#2 -957045499#2"/>
    </person>
    <person id="ped15" type="ped_pedestrian" depart="16.28">
        <walk edges="264530759 1027369934 708132128#1 -708132128#0 -236570787 -943037454#1 -943037454#2 1078799822#0 1078799822#1 955313308#3 1078799823 1078796302"/>
    </person>
    <person id="ped16" type="ped_pedestrian" depart="17.37">
        <walk edges="1088449031#13 1088449031#14 1088449031#15 1088449031#1 1088449031#2 1088449043#2 1088449043#1 1088449045 -186376151#2 187844377#1 7998490#1 -279258826#2 187844379#0 -697841423#0 217987044 348787193#0 -943037449#2 943037451#8 -554016159#3 -554016159#2 -554016159#1 -554016159#0"/>
    </person>
    <person id="ped18" type="ped_pedestrian" depart="19.54">
        <walk edges="292074964#0 943037453#5 -943037453#6 -943037453#7 681473255 -943037453#9 943037453#10 -943037453#11 943037453#12 -943037453#13 -943037453#14 -943037453#15 -943037453#16 943037453#17 -943037449#0 -943037449#1 -943037449#2 -943037452#0 -943037452#1 -943037452#2 362431411 1071670553#1 1071670553#0 -362924088#1 -362924088#0 -552167723#3 -552167723#0 -1095193817#4 -1095193817#2 -1095193817#1 -1095193817#0 1095193818#3 552167736#0 226863629 1232718640#0 1232718640#1 1232718639 552895818#0 552895818#1 1232718638#0 1232718638#1 1232718635 552894901#0 -1017601828 1017601834 1017601833#0 1017601833#1 1017601832#1 1017601831#1 5170374 5170375 -810694956 6168059#1 6168060 -355136903#13 -355136903#11 -355136903#10 -355136903#9 -355136903#8 -355136903#7 -5151626 1111709097 1111709096#0 1111709096#1 1112266386#1 1112266385#2 1112266385#1 1112266384#2 1112266384#1 355285170#2 1243065589#0 1013320818#0 1013320807 1013320802#0 340950641#8 340950641#7 340950641#6 340950641#5 340950641#4 340950641#3 340950641#2 1013320812#0 156641037#0 156641037#1 239965046#4"/>
    </person>
    <person id="ped19" type="ped_pedestrian" depart="20.63">
        <walk edges="-362040645#0 1079708590#1 19526831#1 19526831#3 19526831#4 19526831#5 19526831#6 231086598#2 1149399002#0 1149399002#1 1149399002#2 216613208#0 216613208#1 216613208#2 492547870#0 492547870#2 6272461#0 6272461#1 6272461#2 6272461#3 6272461#4 6272461#5 6272461#6 355370658#1 279381243#0 -279381243#1 -181416980#1 -181416980#0 -779062093 937330048#1 937330048#0 482038388#0 482038388#1 -482038389 1064807197 482038391#1 482038391#0"/>
    </person>
    <person id="ped20" type="ped_pedestrian" depart="21.71">
        <walk edges="-355136903#1 -355136903#2 -355136903#3 -355136903#4 -355136903#5 -355136903#7 -355136903#8 -355136903#9 -355136903#10 -355136903#11 -355136903#13 6168060 6168059#1 -810694956 5170375 5170374 1017601831#1 1017601832#1 1017601833#1 1017601833#0 1017601834 -1017601828 552894901#0 1232718635 1232718638#1 1232718638#0 552895818#1 552895818#0 1232718639 1232718640#1 1232718640#0 226863629 552167736#0 1095193818#3 -1095193817#0 -1095193817#1 -1095193817#2 -1095193817#4 -552167723#0 -552167723#3 -362924088#0 -362924088#1 1071670553#0 1071670553#1 1004155562 626604714 1065116175#3 1065116175#2 1065116175#1 1000779886#0 1091859871#1 1091859871#2 1091859871#3"/>
    </person>
    <person id="ped22" type="ped_pedestrian" depart="23.88">
        <walk edges="181416981#0 -350679714 350679715#0 350679715#1"/>
    </person>
    <person id="ped24" type="ped_pedestrian" depart="26.06">
        <walk edges="-626604710#1 -626604710#0 626610569#0 626610569#1 781957955#1 781957955#2 781957955#3 781957952#1 781957954#1 781957954#2 781957954#3 781957954#4 949170614#0 953067230 986597267 220607194 986597262 986597265 986597260#2 28801724#1 966481930 28801751#1 28801751#2 116934432#8 116934432#9 226863633#0 226863633#1 226863633#2 226863633#5 492547869 587020413#0 -492547872#2 -492547872#3 -492547872#4 -492547872#5 -492547872#6 -492547872#7 -6234788#0 -6234788#1 -6234788#2 -6234788#3 -6234788#4 -6234788#5 -1167743109"/>
    </person>
    <person id="ped26" type="ped_pedestrian" depart="28.23">
        <walk edges="781957950#1 999605836 157480363#2 157480363#1 157480363#0 999605843 781420009#1 953946686#1 953946688#1 953946690#1 953946691#1 1079708588 1079708590#1 -362040645#0 1178270410#0 1178270410#1 1051242079 -1095193817#2 -1095193817#1 -1095193817#0 1095193818#3 552167736#0 226863629 1232718640#0 1232718640#1 1232718639 552895818#0 552895818#1 1232718638#0 1232718638#1 1232718635 552894901#0 -1017601828 1017601834 1017601833#0 1017601833#1 1017601832#1 1017601831#1 5170374 5170375 -810694956 6168059#1 6168060 -355136903#13 -355136903#11 -355136903#10 -355136903#9 -355136903#8 -355136903#7 -5151626 1111709097 1111709096#0 1111709096#1 1112266386#1 1112266385#2 1112266385#1 1112266384#2 1112266384#1 355285170#2 1243065589#0 1013320818#1 1013320818#2 1013320808#0 1013320811#0 1013320810#0"/>
    </person>
    <person id="ped27" type="ped_pedestrian" depart="29.31">
        <walk edges="340950641#3 340950641#4 340950641#5 340950641#6 340950641#7 340950641#8 1013320802#0 1013320807 1013320818#0 1243065589#0 355285170#2 1112266384#1 1112266384#2 1112266385#1 1112266385#2 1112266386#1 1111709096#1 1111709096#0 1111709097 -5151626 -355136903#7 -355136903#8 -355136903#9 -355136903#10 -355136903#11 -355136903#13 6168060 6168059#1 -810694956 5170375 5170374 1017601831#1 1017601832#1 1017601833#1 1017601833#0 1017601834 -1017601828 552894901#0 1232718635 1232718638#1 1232718638#0 552895818#1 552895818#0 1232718639 1232718640#1 1232718640#0 226863629 552167736#0 1095193818#3 -1095193817#0 -1095193817#1 -1095193817#2 1051242079 1178270410#1 1178270410#0 -362040645#0 1079708590#1 19526831#1 19526831#3 19526831#4 19526831#5 19526831#6 231086598#2 1149399002#0 1149399002#1 1149399002#2 6269696#8 1113331794#1 1113331794#0 1113331794#6 6269696#4 6269696#3 1113331793#2 1113331793#3 1113331792#3"/>
    </person>
    <person id="ped28" type="ped_pedestrian" depart="30.40">
        <walk edges="-893397123#1 1126570770#1 1126570770#0 1126570768#0 -1149519338#0 1126570767#0 1126570767#1 445548082#0 445548082#1 292074964#1 292074964#0 943037453#5 -943037453#6 -943037453#7 681473255 292074963#0 292074963#1 292074963#2 292074963#4 -236570790#5 236570790#4 236570790#3 236570790#2 236570790#1 236570790#0 187844363 -697841423#0"/>
    </person>
    <person id="ped29" type="ped_pedestrian" depart="31.48">
        <walk edges="181483887#3 1133523601 181461570#0 216613208#2 492547870#0 492547870#2 6272461#0 6272461#1 6272461#2 6272461#3 6272461#4 6272461#5 6272461#6 355370658#1 279381243#0 279381243#1 858082470#3 858082470#2 858082470#1 858082470#0 858082471#0 -350679715#3 -858082475"/>
    </person>
    <person id="ped32" type="ped_pedestrian" depart="34.74">
        <walk edges="999479388 998552680#0 781957952#1 781957955#3 781957955#2 626610573#2 626610573#1 626610573#0 781957947#1 626610564#1 157907226#2 157907226#1 1065116178#1 1065116175#3 1065116175#2 1065116175#1 1000779886#0 1000779886#1 1000779886#2 955313308#2 1078799823 1078796301 1078796297 1078796300 1078796296 1078796294 678745797#1 678745797#0 597936210 136116913#4 136116913#5 136116913#2 136116913#1"/>
    </person>
    <person id="ped33" type="ped_pedestrian" depart="35.83">
        <walk edges="-230298414#1 -230298414#2 1012814957#0 1012814957#1 1012814958 -230298418#4 230298418#3 1078244021 732484187#4 552442846#0 552442846#2 732484194#6 732484194#5 732484194#4 732484194#3 732484194#2 732484194#1 732484192#1 732484192#0 345750123#3 345750137#5 -345750137#4 -345750137#3 -345750137#2 -345750137#1 -345750137#0 345750129#1 345750129#0 -345750139#3 -1150235333 138943452#3 138943452#1 138943452#0 -1013012547 976896107#4 976896107#3 976896107#2 976896107#1 976896107#0 1020365367#4 1149979542#3 1149979542#2 1149979542#1 1019977072#0 231086598#2 1149399002#0 1149399002#1 1149399002#2 216613208#0 216613208#1 216613208#2 492547870#0 988936712 25041680#1 25041680#2 25041680#3"/>
    </person>
    <person id="ped35" type="ped_pedestrian" depart="38.00">
        <walk edges="-158422205 1095193818#0 1095193818#3 -1095193817#0 -1095193817#1 -1095193817#2 1051242079 1178270410#1 1178270410#0 -362040645#0 1079708590#1 19526831#1 19526831#3 19526831#4 19526831#5 19526831#6 231086598#2 1149399002#0 1149399002#1 1149399002#2 216613208#0 216613208#1 216613208#2 492547870#0 492547870#2 6272461#0 6272461#1 6272461#2 6272461#3 6272461#4 6272461#5 6272461#6 355370658#1 279381243#0 -279381243#1 -181416980#1 -181416980#0 -779062093 937330048#1 937330048#0 482038388#0 482038388#1 -482038389 1064807197 482038391#1 482038391#0 1092861696"/>
    </person>
    <person id="ped37" type="ped_pedestrian" depart="40.17">
        <walk edges="980579252#2 155270022#2 -155270022#1 279381243#1 279381243#0 355370658#1 6272461#6 6272461#5 6272461#4 6272461#3 6272461#2 6272461#1 6272461#0 492547870#2 492547870#0 216613208#2 216613208#1 216613208#0 1149399002#2 1149399002#1 1149399002#0 231086598#2 1019977072#0 1149979542#1 1149979542#2 1149979542#3 1020365367#4 976896107#0 976896107#1 976896107#2 976896107#3 976896107#4 -1013012547 138943452#0 138943452#1 138943452#3 -1150235333 -345750139#3 345750129#0 345750129#1 -345750137#0 -345750137#1 -345750137#2 -345750137#3 -345750137#4 345750137#5 345750123#3 732484192#0 732484192#1 732484194#1 544509211#1 548188249#6 753712984#5 753712984#4 753712984#3 753712984#2 753712990"/>
    </person>
    <person id="ped38" type="ped_pedestrian" depart="41.25">
        <walk edges="-1017601812 44954277 1017601829#1 1017601829#2 1017601828 552894901#0 1232718635 1232718638#1 1232718638#0 552895818#1 552895818#0 1232718639 1232718640#1 1232718640#0 226863629 552167736#0 1095193818#3 -1095193817#0 -1095193817#1 -1095193817#2 -1095193817#4 -552167723#0 -552167723#3 -362924088#0 -362924088#1 1071670553#0 1071670553#1 362431411 -943037452#2 -943037452#1 -943037452#0 -943037449#2 -943037449#1 -943037449#0 943037453#17 -943037453#16 -943037453#15 -943037453#14 -943037453#13 943037453#12 -943037453#11 943037453#10 -943037453#9 681473255 -943037453#7 -943037453#6 943037453#5 -943037453#4 -943037453#3 -943037453#2 -943037453#1 445548081#0"/>
    </person>
    <person id="ped39" type="ped_pedestrian" depart="42.34">
        <walk edges="345757524#0 -345757524#1 -537691924 -345757523#0 -1198141607 -140393890#2 -537691926#0 -537691926#1 1104186482#0 537440334#1 537440334#2 -537691928#2 -835531005#0 -362040625#0 -835609190#0 -1017601824 755853216#0 755853216#1 -1017601823 -1017601822#0 1017601817#2 -1017601819#1 -1017601819#0 -1017601820#0 -1017601816#0 1017601814#1 -1017601813#1 -1017601813#0 -1017601812 -1017601829#0 -1017601829#1 -259280134#0 1017601834 1017601833#0 1017601833#1 1017601832#1 1017601831#1 5170374 5170375 -810694956 6168059#1 6168060 -355136903#13 1243275296#0 1243275295 1243275294#3 1243275294#2 1091144610#0 12293791#1 12294769 1243065581#1 -169558503#1 -169558503#2 -169558503#3 -169558503#4 -169558503#5 169558503#6"/>
    </person>
    <person id="ped40" type="ped_pedestrian" depart="43.43">
        <walk edges="-930361147 -236570790#2 -236570790#1 236570790#0 187844363 -943037454#1 -943037454#2 1078799822#0 1078799822#1 955313308#3 955313308#2 1000779886#2 1000779886#1 1000779886#0 1065116175#1 1065116175#2 1065116175#3 626604714 1004155562 1071670553#1 1071670553#0 -362924088#1 609935510#0 609935510#2 609935510#4 1079708589#0 1079708589#1 1079708588 19526831#1 19526831#3 19526831#4 19526831#5 19526831#6 231086598#2 1149399002#0 1149399002#1 1149399002#2 216613208#0 216613208#1 216613208#2 492547870#0 492547870#2 6272461#0 6272461#1 6272461#2 6272461#3 6272461#4 6272461#5 6272461#6 355370658#1 279381243#0 279381243#1 279381243#5 279381243#6 279381243#7"/>
    </person>
    <person id="ped41" type="ped_pedestrian" depart="44.51">
        <walk edges="1165981209#2 1165981209#1 1165981210#0 1165981210#1 1165981207#3 380370786 380370787#2 380370787#3 1124107238#0 1124107238#1 1124107238#2 1124107238#3 943027529#3 1124109336#0 1157640518#3 1157640518#2 1157640518#1 1157640518#0 1157634886#1 1157634886#0 679378119#5 679378119#4 679378119#3 679378119#2 1157634872#1 1157634872#0 1157634871#1 1157634871#0 966590157#0 966590158"/>
    </person>
    <person id="ped43" type="ped_pedestrian" depart="46.68">
        <walk edges="1250375004#1 -1250375004#0 1250376022 154764152 340950641#0 340950641#1 340950641#2 340950641#3 340950641#4 340950641#5 340950641#6 340950641#7 340950641#8 1013320802#0 1013320807 1013320818#0 1243065589#0 355285170#2 1112266384#1 1112266384#2 1112266385#1 1112266385#2 1112266386#1 1111709096#1 1111709096#0 1111709097 -5151626 -355136903#7 -355136903#8 -355136903#9 -355136903#10 -355136903#11 -355136903#13 6168060 6168059#1 -810694956 5170375 5170374 1017601831#1 1017601832#1 1017601833#1 1017601833#0 1017601834 -1017601828 552894901#0 1232718635 1232718638#1 1232718638#0 552895818#1 552895818#0 1232718639 1232718640#1 1232718640#0 226863629 552167736#0 1095193818#3 -1095193817#0 -1095193817#1 -1095193817#2 -1095193817#4 -552167723#0 -552167723#3 -362924088#0 -362924088#1 1071670553#0 1071670553#1 362431411 -943037452#2 -943037452#1 -943037452#0 -943037449#2 -943037449#1 -943037449#0 943037453#17 -943037453#16 -943037453#15 -943037453#14 -943037453#13 943037453#12 -943037453#11 943037453#10 -943037453#9 681473255 -943037453#7 -943037453#6 943037453#5 292074964#0 292074964#1 445548082#1 445548082#0 1126570767#1 1126570767#0 1126570766 554032242#6 554032242#7 657272912 657272909 643485455 567506056#1 -380423729#1 -380423729#2 -380423729#3 -380423729#4"/>
    </person>
    <person id="ped44" type="ped_pedestrian" depart="47.77">
        <walk edges="943569568 943569571#4 -345757523#15 -345757523#16 -345757523#17 -345757523#18 -345757517#2 -345757517#3 -1092861693 1002239207#0 1002239207#1 1002239207#2 1092861695#3 1092861695#2 -758152468#0 -758152468#6 -758152468#5 244142664#0 244142664#1 244142664#2 244142664#3 244142664#4 244142622#1 -244142635 -244142651#0 244142630#1 -244142643 -244142656#1 981324463 175718552#2 362040635#0 -362040635#1 279381243#7 279381243#6 279381243#5 279381243#1 279381243#0 355370658#1 6272461#6 6272461#5 6272461#4 6272461#3 6272461#2 6272461#1 6272461#0 492547870#2 492547870#0 216613208#2 181461570#0 1133523601 181483887#3 181483887#2 181483887#1 181483887#0 -116934432#1 -116934432#5 345750672#1 345750672#0 345750673 46915489#1 46915489#0 981661153 968122731#1 968122731#0 999605843 781420009#0"/>
    </person>
    <person id="ped45" type="ped_pedestrian" depart="48.85">
        <walk edges="1001823047 -440334675#3 -345750097#0 -345750097#1 -345750097#2 345750097#3 -345750097#4 345750135#3 1024278924 345750139#5 -1150235333 1008829683#0 1008829683#1 1008829688 1008833116#1 1095193818#3 -1095193817#0 -1095193817#1 -1095193817#2 -1095193817#4 -552167723#0 -552167723#3 -362924088#0 -362924088#1 1071670553#0 1071670553#1 362431411 -943037452#2 -943037452#1 -943037452#0 -943037449#2 -943037449#1 -943037449#0 943037453#17 -178872043#3 -178872043#4 1016539369#2 626604712#1 966590146#0 958856730#3 958856730#4 958856730#5 958856730#6 958856730#7 1226175101 -265483112#0 -265483112#1 265483112#2"/>
    </person>
    <person id="ped46" type="ped_pedestrian" depart="49.94">
        <walk edges="239965046#3 340950639 156641030#4 156641037#0 1013320812#0 340950641#2 340950641#3 340950641#4 340950641#5 340950641#6 340950641#7 340950641#8 1013320802#0 1013320807 1013320818#0 1243065589#0 355285170#2 1112266384#1 1112266384#2 1112266385#1 1112266385#2 1112266386#1 1111709096#1 1111709096#0 1111709097 -5151626 -355136903#7 -355136903#8 -355136903#9 -355136903#10 -355136903#11 -355136903#13 6168060 6168059#1 -810694956 5170375 5170374 1017601831#1 1017601832#1 1017601833#1 1017601833#0 1017601834 -1017601828 552894901#0 1232718635 1232718638#1 1232718638#0 552895818#1 552895818#0 1232718639 1232718640#1 1232718640#0 226863629 552167736#0 1008833116#1 1008829688 1008829683#1 1008829683#0 -1150235333 345750139#5 1024278924 345750135#3 -345750097#5 781420028#1 781420028#0 -345750092#0 781420032 345750082#1 345750130#3 345750130#2 345750130#1 345750130#0 -345750100#0 -345750102#1"/>
    </person>
    <person id="ped47" type="ped_pedestrian" depart="51.03">
        <walk edges="552442841#3 -226968119#3 -226968119#4 -226968119#5 -226968119#6 -226968119#7 -226968119#8 -226968119#9 -226968119#10 836324348#4 836324348#3 836324348#2 -226968119#15 226968119#16 -1017601824 755853216#0 755853216#1 -1017601823 -1017601822#0 1017601817#2 -1017601819#1 -1017601819#0 -1017601820#0 -1017601816#0 1017601814#1 -1017601813#1 -1017601813#0 -1017601812 -1017601829#0 -1017601829#1 -259280134#0 1017601834 1017601833#0 1017601833#1 1017601832#1 1017601831#1 5170374 5170375 -810694956 6168059#1 6168060 -355136903#13 1243275296#0 1243275295 1243275294#3 1243275294#2 1091144610#0 12293791#1 12294769 1243065581#1 -1243065583 169557985#9 169557985#7 169557985#6 169557985#5 169557985#4 169557985#2 169558517#0"/>
    </person>
    <person id="ped50" type="ped_pedestrian" depart="54.28">
        <walk edges="-1055082101 28765646#1 181409018#1 1055093759#1 1055093759#0 -181409037#6 -181409037#5 -181409037#4 -181409037#3 -181409037#2 -181409034#1 953297225#0 953297225#1"/>
    </person>
    <person id="ped51" type="ped_pedestrian" depart="55.37">
        <walk edges="1008829683#1 1008829688 1008833116#1 552167736#0 226863629 1232718640#0 1232718640#1 1232718639 552895818#0 552895818#1 1232718638#0 1232718638#1 1232718635 552894901#0 1017601828 1017601829#2 1017601829#1 44954277 -1017601812 -1017601813#0 -1017601813#1 1017601814#1 -1017601816#0 -1017601820#0 -1017601819#0 -1017601819#1 1017601817#2 -1017601822#0 -1017601823 755853216#1 755853216#0 -1017601824 -835609190#0 -362040625#0 -835531005#0 -537691928#2 537440334#2 537440334#1 1104186482#0 -537691926#1 -537691926#0 -140393890#2"/>
    </person>
    <person id="ped52" type="ped_pedestrian" depart="56.45">
        <walk edges="781957955#2 626610573#2 626610573#1 626610573#0 781957949#1 781957949#0 968122730 968122731#0 968122731#1 981661153 46915489#0 46915489#1 345750673 345750672#0 345750672#1 116934432#5 -1089560861#1 -1089560861#2 -138943458#0 -138943458#1 -138943458#2 25041680#0 25041680#1 975654646 975654644#1 975654645 964017174#2 964017172#1"/>
    </person>
    <person id="ped53" type="ped_pedestrian" depart="57.54">
        <walk edges="-181418887#3 -943037449#1 -943037449#2 -943037452#0 -943037452#1 -943037452#2 362431411 1071670553#1 1071670553#0 -362924088#1 609935510#0 609935510#2 609935510#4 1079708589#0 1079708589#1 1079708588 19526831#1 19526831#3 19526831#4 19526831#5 19526831#6 231086598#2 1149399002#0 1149399002#1 1149399002#2 216613208#0 216613208#1 216613208#2 492547870#0 492547870#2 6272461#0 6272461#1 6272461#2 6272461#3 6272461#4 6272461#5 6272461#6 355370658#1 279381243#0 -279381243#1 -181416980#1 -181416980#0 -779062093 937330048#1 937330047#1 1212121668"/>
    </person>
    <person id="ped54" type="ped_pedestrian" depart="58.63">
        <walk edges="-169558503#2 -169558503#1 1243065581#1 12294769 12293791#1 1091144610#0 1243275294#2 1243275294#3 1243275295 1243275296#0 -355136903#13 6168060 6168059#1 -810694956 5170375 5170374 1017601831#1 1017601832#1 1017601833#1 1017601833#0 1017601834 -1017601828 552894901#0 1232718635 1232718638#1 1232718638#0 552895818#1 552895818#0 1232718639 1232718640#1 1232718640#0 226863629 552167736#0 1095193818#3 -1095193817#0 -1095193817#1 -1095193817#2 -1095193817#4 -552167723#0 -552167723#3 -362924088#0 -362924088#1 1071670553#0 1071670553#1 362431411 -943037452#2 -943037452#1 -943037452#0 -943037449#2 -943037449#1 -943037449#0 943037453#17 -943037453#16 -943037453#15 -943037453#14 -943037453#13 943037453#12 -943037453#11 943037453#10 -943037453#9 681473255 -943037453#7 -943037453#6 552167778#0"/>
    </person>
    <person id="ped55" type="ped_pedestrian" depart="59.71">
        <walk edges="552442847#2 552442847#3 552442847#4 552442847#6 974662670#3 1073754318#1 1073754318#2 1073754318#3 732484194#4 732484194#3 732484194#2 732484194#1 732484192#1 732484192#0 345750123#3 345750137#5 -345750137#4 -345750137#3 -345750137#2 -345750137#1 -345750137#0 345750129#1 345750129#0 -345750139#3 -1150235333 138943452#3 138943452#1 138943452#0 -1013012547 976896107#4 976896107#3 976896107#2 976896107#1 976896107#0 1020365367#4 1149979542#3 1149979542#2 1149979542#1 1019977072#0 231086598#2 1149399002#0 1149399002#1 1149399002#2 216613208#0 216613208#1 216613208#2 492547870#0 492547870#2 6272461#0 6272461#1 6272461#2 6272461#3 6272461#4 6272461#5 6272461#6 355370658#1 279381243#0 279381243#1 279381243#5 279381243#6 279381243#7 -362040635#1 362040635#0 175718552#2 981324463 244142656#2 -244142656#3 -244142665#1"/>
    </person>
    <person id="ped56" type="ped_pedestrian" depart="60.80">
        <walk edges="119333811#2 -222271721#2 -232251919#3 118386995 -222271724 -1013533138 -116863331#1 -116863331#0 261006687#0 -261006687#1 261006685 -626604710#4 -626604710#3 -626604710#1 -626604710#0 626610569#0 626610569#1 781957955#1 781957955#2 781957955#3 781957952#1 781957954#1 781957954#2 953297246#2 953298667#0 953298667#1 -1008074583 181409048#2 181409016#0"/>
    </person>
    <person id="ped57" type="ped_pedestrian" depart="61.88">