<?xml version="1.0" encoding="UTF-8"?>

<!-- generated on 2024-04-03 19:45:03.647792 by osmWebWizard.py v1_19_0+0000-baa66a0f364
<configuration>
    <net-file value="C:\Users\atp\Sumo\2024-04-03-19-44-07\osm.net.xml.gz"/>
    <output-trip-file value="C:\Users\atp\Sumo\2024-04-03-19-44-07\osm.tram.trips.xml"/>
    <route-file value="C:\Users\atp\Sumo\2024-04-03-19-44-07\osm.tram.rou.xml"/>
    <prefix value="tram"/>
    <trip-attributes value="departLane=&quot;best&quot;"/>
    <fringe-start-attributes value="departSpeed=&quot;max&quot;"/>
    <vehicle-class value="tram"/>
    <fringe-factor value="20"/>
    <vclass value="tram"/>
    <via-edge-types value="highway.motorway,highway.motorway_link,highway.trunk_link,highway.primary_link,highway.secondary_link,highway.tertiary_link"/>
    <min-distance value="1200.0"/>
    <min-distance.fringe value="10.0"/>
    <remove-loops value="True"/>
    <validate value="True"/>
    <insertion-density value="3.0"/>
</configuration>
-->

<!-- generated on 2024-04-03 19:45:03 by Eclipse SUMO duarouter Version 1.19.0
<configuration xmlns:xsi="http://www.w3.org/2001/XMLSchema-instance" xsi:noNamespaceSchemaLocation="http://sumo.dlr.de/xsd/duarouterConfiguration.xsd">

    <input>
        <net-file value="C:\Users\atp\Sumo\2024-04-03-19-44-07\osm.net.xml.gz"/>
        <route-files value="C:\Users\atp\Sumo\2024-04-03-19-44-07\osm.tram.trips.xml"/>
    </input>

    <output>
        <output-file value="C:\Users\atp\Sumo\2024-04-03-19-44-07\osm.tram.trips.xml.tmp"/>
        <alternatives-output value="NUL"/>
        <write-trips value="true"/>
    </output>

    <processing>
        <remove-loops value="true"/>
    </processing>

    <time>
        <begin value="0.0"/>
        <end value="3600.0"/>
    </time>

    <report>
        <no-warnings value="true"/>
        <ignore-errors value="true"/>
        <no-step-log value="true"/>
    </report>

</configuration>
-->

<routes xmlns:xsi="http://www.w3.org/2001/XMLSchema-instance" xsi:noNamespaceSchemaLocation="http://sumo.dlr.de/xsd/routes_file.xsd">
    <vType id="tram_tram" vClass="tram"/>
    <trip id="tram5" type="tram_tram" depart="326.48" departLane="best" departSpeed="max" from="157767293#0" to="328144856#1"/>
    <trip id="tram7" type="tram_tram" depart="457.07" departLane="best" departSpeed="max" from="157767293#0" to="328144859#1"/>
    <trip id="tram49" type="tram_tram" depart="3199.52" departLane="best" from="552442849#25" to="552167722"/>
</routes>
