<?xml version="1.0" encoding="UTF-8"?>

<!-- generated on 2024-04-03 19:44:46.906487 by osmWebWizard.py v1_19_0+0000-baa66a0f364
<configuration>
    <net-file value="C:\Users\atp\Sumo\2024-04-03-19-44-07\osm.net.xml.gz"/>
    <output-trip-file value="C:\Users\atp\Sumo\2024-04-03-19-44-07\osm.pedestrian.trips.xml"/>
    <route-file value="C:\Users\atp\Sumo\2024-04-03-19-44-07\osm.pedestrian.rou.xml"/>
    <pedestrians value="True"/>
    <prefix value="ped"/>
    <vehicle-class value="pedestrian"/>
    <fringe-factor value="1"/>
    <max-distance value="2000.0"/>
    <insertion-density value="10.0"/>
</configuration>
-->

<routes xmlns:xsi="http://www.w3.org/2001/XMLSchema-instance" xsi:noNamespaceSchemaLocation="http://sumo.dlr.de/xsd/routes_file.xsd">
    <vType id="ped_pedestrian" vClass="pedestrian"/>
    <person id="ped0" depart="0.00" type="ped_pedestrian">
        <walk from="267036975#1" to="-1091859877"/>
    </person>
    <person id="ped1" depart="1.09" type="ped_pedestrian">
        <walk from="507521702#0" to="345750673"/>
    </person>
    <person id="ped2" depart="2.17" type="ped_pedestrian">
        <walk from="858082470#2" to="-181483889"/>
    </person>
    <person id="ped3" depart="3.26" type="ped_pedestrian">
        <walk from="1138616920#2" to="-1149519338#3"/>
    </person>
    <person id="ped4" depart="4.34" type="ped_pedestrian">
        <walk from="-1095193818#0" to="-507426244#3"/>
    </person>
    <person id="ped5" depart="5.43" type="ped_pedestrian">
        <walk from="625952813#2" to="-1012329053"/>
    </person>
    <person id="ped6" depart="6.51" type="ped_pedestrian">
        <walk from="1024278924" to="-345750139#1"/>
    </person>
    <person id="ped7" depart="7.60" type="ped_pedestrian">
        <walk from="967932785" to="1020365367#9"/>
    </person>
    <person id="ped8" depart="8.69" type="ped_pedestrian">
        <walk from="708976830" to="235965687#1"/>
    </person>
    <person id="ped9" depart="9.77" type="ped_pedestrian">
        <walk from="169558503#1" to="981250461#2"/>
    </person>
    <person id="ped10" depart="10.86" type="ped_pedestrian">
        <walk from="1091144610#0" to="181409037#3"/>
    </person>
    <person id="ped11" depart="11.94" type="ped_pedestrian">
        <walk from="753712996" to="220846533#1"/>
    </person>
    <person id="ped12" depart="13.03" type="ped_pedestrian">
        <walk from="-625952813#0" to="-991639629#1"/>
    </person>
    <person id="ped13" depart="14.11" type="ped_pedestrian">
        <walk from="-181409043#1" to="-653933185#0"/>
    </person>
    <person id="ped14" depart="15.20" type="ped_pedestrian">
        <walk from="-226958391#2" to="-957045499#2"/>
    </person>
    <person id="ped15" depart="16.28" type="ped_pedestrian">
        <walk from="264530759" to="1078796302"/>
    </person>
    <person id="ped16" depart="17.37" type="ped_pedestrian">
        <walk from="1088449031#13" to="-554016159#0"/>
    </person>
    <person id="ped17" depart="18.46" type="ped_pedestrian">
        <walk from="-937743706#1" to="954187751"/>
    </person>
    <person id="ped18" depart="19.54" type="ped_pedestrian">
        <walk from="292074964#0" to="239965046#4"/>
    </person>
    <person id="ped19" depart="20.63" type="ped_pedestrian">
        <walk from="-362040645#0" to="482038391#0"/>
    </person>
    <person id="ped20" depart="21.71" type="ped_pedestrian">
        <walk from="-355136903#1" to="1091859871#3"/>
    </person>
    <person id="ped21" depart="22.80" type="ped_pedestrian">
        <walk from="991203629#0" to="268150628"/>
    </person>
    <person id="ped22" depart="23.88" type="ped_pedestrian">
        <walk from="181416981#0" to="350679715#1"/>
    </person>
    <person id="ped23" depart="24.97" type="ped_pedestrian">
        <walk from="705875460#1" to="555816526"/>
    </person>
    <person id="ped24" depart="26.06" type="ped_pedestrian">
        <walk from="-626604710#1" to="-1167743109"/>
    </person>
    <person id="ped25" depart="27.14" type="ped_pedestrian">
        <walk from="-555816527" to="958856730#3"/>
    </person>
    <person id="ped26" depart="28.23" type="ped_pedestrian">
        <walk from="781957950#1" to="1013320810#0"/>
    </person>
    <person id="ped27" depart="29.31" type="ped_pedestrian">
        <walk from="340950641#3" to="1113331792#3"/>
    </person>
    <person id="ped28" depart="30.40" type="ped_pedestrian">
        <walk from="-893397123#1" to="-697841423#0"/>
    </person>
    <person id="ped29" depart="31.48" type="ped_pedestrian">
        <walk from="181483887#3" to="-858082475"/>
    </person>
    <person id="ped30" depart="32.57" type="ped_pedestrian">
        <walk from="225165418" to="887864519#6"/>
    </person>
    <person id="ped31" depart="33.66" type="ped_pedestrian">
        <walk from="1113331796#2" to="-561190191#0"/>
    </person>
    <person id="ped32" depart="34.74" type="ped_pedestrian">
        <walk from="999479388" to="136116913#1"/>
    </person>
    <person id="ped33" depart="35.83" type="ped_pedestrian">
        <walk from="-230298414#1" to="25041680#3"/>
    </person>
    <person id="ped34" depart="36.91" type="ped_pedestrian">
        <walk from="581233912" to="1138616920#4"/>
    </person>
    <person id="ped35" depart="38.00" type="ped_pedestrian">
        <walk from="-158422205" to="1092861696"/>
    </person>
    <person id="ped36" depart="39.08" type="ped_pedestrian">
        <walk from="996059494#1" to="160054177#0"/>
    </person>
    <person id="ped37" depart="40.17" type="ped_pedestrian">
        <walk from="980579252#2" to="753712990"/>
    </person>
    <person id="ped38" depart="41.25" type="ped_pedestrian">
        <walk from="-1017601812" to="445548081#0"/>
    </person>
    <person id="ped39" depart="42.34" type="ped_pedestrian">
        <walk from="345757524#0" to="169558503#6"/>
    </person>
    <person id="ped40" depart="43.43" type="ped_pedestrian">
        <walk from="-930361147" to="279381243#7"/>
    </person>
    <person id="ped41" depart="44.51" type="ped_pedestrian">
        <walk from="1165981209#2" to="966590158"/>
    </person>
    <person id="ped42" depart="45.60" type="ped_pedestrian">
        <walk from="781957947#1" to="-858183288"/>
    </person>
    <person id="ped43" depart="46.68" type="ped_pedestrian">
        <walk from="1250375004#1" to="-380423729#4"/>
    </person>
    <person id="ped44" depart="47.77" type="ped_pedestrian">
        <walk from="943569568" to="781420009#0"/>
    </person>
    <person id="ped45" depart="48.85" type="ped_pedestrian">
        <walk from="1001823047" to="265483112#2"/>
    </person>
    <person id="ped46" depart="49.94" type="ped_pedestrian">
        <walk from="239965046#3" to="-345750102#1"/>
    </person>
    <person id="ped47" depart="51.03" type="ped_pedestrian">
        <walk from="552442841#3" to="169558517#0"/>
    </person>
    <person id="ped48" depart="52.11" type="ped_pedestrian">
        <walk from="555816534" to="16181894"/>
    </person>
    <person id="ped49" depart="53.20" type="ped_pedestrian">
        <walk from="-1001822976#0" to="1016603717#1"/>
    </person>
    <person id="ped50" depart="54.28" type="ped_pedestrian">
        <walk from="-1055082101" to="953297225#1"/>
    </person>
    <person id="ped51" depart="55.37" type="ped_pedestrian">
        <walk from="1008829683#1" to="-140393890#2"/>
    </person>
    <person id="ped52" depart="56.45" type="ped_pedestrian">
        <walk from="781957955#2" to="964017172#1"/>
    </person>
    <person id="ped53" depart="57.54" type="ped_pedestrian">
        <walk from="-181418887#3" to="1212121668"/>
    </person>
    <person id="ped54" depart="58.63" type="ped_pedestrian">
        <walk from="-169558503#2" to="552167778#0"/>
    </person>
    <person id="ped55" depart="59.71" type="ped_pedestrian">
        <walk from="552442847#2" to="-244142665#1"/>
    </person>
    <person id="ped56" depart="60.80" type="ped_pedestrian">
        <walk from="119333811#2" to="181409016#0"/>
    </person>
    <person id="ped57" depart="61.88" type="ped_pedestrian">
        <walk from="-893397123#2" to="781420023"/>
    </person>
    <person id="ped58" depart="62.97" type="ped_pedestrian">
        <walk from="1138955721#2" to="-555816529#2"/>
    </person>
    <person id="ped59" depart="64.05" type="ped_pedestrian">
        <walk from="169558516#2" to="482038394#1"/>
    </person>
    <person id="ped60" depart="65.14" type="ped_pedestrian">
        <walk from="991702325" to="331293891"/>
    </person>
    <person id="ped61" depart="66.22" type="ped_pedestrian">
        <walk from="1157634871#3" to="155639517#3"/>
    </person>
    <person id="ped62" depart="67.31" type="ped_pedestrian">
        <walk from="-244142642" to="-6170121#0"/>
    </person>
    <person id="ped63" depart="68.40" type="ped_pedestrian">
        <walk from="1024276865" to="226968119#5"/>
    </person>
    <person id="ped64" depart="69.48" type="ped_pedestrian">
        <walk from="-626604710#5" to="-561193784#0"/>
    </person>
    <person id="ped65" depart="70.57" type="ped_pedestrian">
        <walk from="-169558511" to="259118687#11"/>
    </person>
    <person id="ped66" depart="71.65" type="ped_pedestrian">
        <walk from="753712984#3" to="-169558510"/>
    </person>
    <person id="ped67" depart="72.74" type="ped_pedestrian">
        <walk from="-664902504#1" to="345750116"/>
    </person>
    <person id="ped68" depart="73.82" type="ped_pedestrian">
        <walk from="-561168708#0" to="-250660626#0"/>
    </person>
    <person id="ped69" depart="74.91" type="ped_pedestrian">
        <walk from="954170413" to="199162384#0"/>
    </person>
    <person id="ped70" depart="76.00" type="ped_pedestrian">
        <walk from="118566470" to="561190167#0"/>
    </person>
    <person id="ped71" depart="77.08" type="ped_pedestrian">
        <walk from="624187485#1" to="-46691296#0"/>
    </person>
    <person id="ped72" depart="78.17" type="ped_pedestrian">
        <walk from="1138955721#5" to="1174257527#1"/>
    </person>
    <person id="ped73" depart="79.25" type="ped_pedestrian">
        <walk from="482038391#0" to="345750132#2"/>
    </person>
    <person id="ped74" depart="80.34" type="ped_pedestrian">
        <walk from="111489547#6" to="1024276875"/>
    </person>
    <person id="ped75" depart="81.42" type="ped_pedestrian">
        <walk from="753712995" to="-708976828#2"/>
    </person>
    <person id="ped76" depart="82.51" type="ped_pedestrian">
        <walk from="1138616920#2" to="-957045500#0"/>
    </person>
    <person id="ped77" depart="83.60" type="ped_pedestrian">
        <walk from="-730902539" to="949222293#0"/>
    </person>
    <person id="ped78" depart="84.68" type="ped_pedestrian">
        <walk from="999605839" to="684362354#0"/>
    </person>
    <person id="ped79" depart="85.77" type="ped_pedestrian">
        <walk from="980511102#0" to="950050684"/>
    </person>
    <person id="ped80" depart="86.85" type="ped_pedestrian">
        <walk from="111489547#1" to="-147479157"/>
    </person>
    <person id="ped81" depart="87.94" type="ped_pedestrian">
        <walk from="1091859871#0" to="986599867#1"/>
    </person>
    <person id="ped82" depart="89.02" type="ped_pedestrian">
        <walk from="-893397123#3" to="561168708#7"/>
    </person>
    <person id="ped83" depart="90.11" type="ped_pedestrian">
        <walk from="1165981216" to="1138955721#1"/>
    </person>
    <person id="ped84" depart="91.19" type="ped_pedestrian">
        <walk from="967932785" to="992643733#0"/>
    </person>
    <person id="ped85" depart="92.28" type="ped_pedestrian">
        <walk from="181411654#0" to="441160555#0"/>
    </person>
    <person id="ped86" depart="93.37" type="ped_pedestrian">
        <walk from="-345750137#3" to="1001822976#0"/>
    </person>
    <person id="ped87" depart="94.45" type="ped_pedestrian">
        <walk from="978088241#2" to="221944774"/>
    </person>
    <person id="ped88" depart="95.54" type="ped_pedestrian">
        <walk from="170591790#1" to="537691926#1"/>
    </person>
    <person id="ped89" depart="96.62" type="ped_pedestrian">
        <walk from="-345757517#1" to="974650181#1"/>
    </person>
    <person id="ped90" depart="97.71" type="ped_pedestrian">
        <walk from="229710909#0" to="345750138#0"/>
    </person>
    <person id="ped91" depart="98.79" type="ped_pedestrian">
        <walk from="858082461" to="-690638104#1"/>
    </person>
    <person id="ped92" depart="99.88" type="ped_pedestrian">
        <walk from="1138616917#2" to="225014686#0"/>
    </person>
    <person id="ped93" depart="100.97" type="ped_pedestrian">
        <walk from="156793863" to="953946686#1"/>
    </person>
    <person id="ped94" depart="102.05" type="ped_pedestrian">
        <walk from="-537691926#0" to="439754913#1"/>
    </person>
    <person id="ped95" depart="103.14" type="ped_pedestrian">
        <walk from="345750127#0" to="1001823053#0"/>
    </person>
    <person id="ped96" depart="104.22" type="ped_pedestrian">
        <walk from="1013320815" to="544508802"/>
    </person>
    <person id="ped97" depart="105.31" type="ped_pedestrian">
        <walk from="-169558518#4" to="1167426012#1"/>
    </person>
    <person id="ped98" depart="106.39" type="ped_pedestrian">
        <walk from="999518837#1" to="996059494#1"/>
    </person>
    <person id="ped99" depart="107.48" type="ped_pedestrian">
        <walk from="-170591789#4" to="-555816538#1"/>
    </person>
    <person id="ped100" depart="108.56" type="ped_pedestrian">
        <walk from="7998645#11" to="7982503"/>
    </person>
    <person id="ped101" depart="109.65" type="ped_pedestrian">
        <walk from="683484222#4" to="380423729#2"/>
    </person>
    <person id="ped102" depart="110.74" type="ped_pedestrian">
        <walk from="241193236#0" to="986711009#3"/>
    </person>
    <person id="ped103" depart="111.82" type="ped_pedestrian">
        <walk from="628321703#0" to="1001823050#2"/>
    </person>
    <person id="ped104" depart="112.91" type="ped_pedestrian">
        <walk from="345750091#0" to="955313308#1"/>
    </person>
    <person id="ped105" depart="113.99" type="ped_pedestrian">
        <walk from="-259281582#5" to="-23840257#0"/>
    </person>
    <person id="ped106" depart="115.08" type="ped_pedestrian">
        <walk from="-229688991#1" to="181409043#3"/>
    </person>
    <person id="ped107" depart="116.16" type="ped_pedestrian">
        <walk from="-943037453#16" to="236570328#0"/>
    </person>
    <person id="ped108" depart="117.25" type="ped_pedestrian">
        <walk from="440334675#6" to="-537691923#0"/>
    </person>
    <person id="ped109" depart="118.34" type="ped_pedestrian">
        <walk from="259281586#1" to="-882846538#3"/>
    </person>
    <person id="ped110" depart="119.42" type="ped_pedestrian">
        <walk from="708976823" to="-216612690#0"/>
    </person>
    <person id="ped111" depart="120.51" type="ped_pedestrian">
        <walk from="-1004155559#2" to="554016160#4"/>
    </person>
    <person id="ped112" depart="121.59" type="ped_pedestrian">
        <walk from="521061466#3" to="181409034#4"/>
    </person>
    <person id="ped113" depart="122.68" type="ped_pedestrian">
        <walk from="1149979542#4" to="-1016426342#1"/>
    </person>
    <person id="ped114" depart="123.76" type="ped_pedestrian">
        <walk from="-175834153#1" to="8014772#2"/>
    </person>
    <person id="ped115" depart="124.85" type="ped_pedestrian">
        <walk from="943027539#3" to="178872040#0"/>
    </person>
    <person id="ped116" depart="125.94" type="ped_pedestrian">
        <walk from="683484226" to="225014681#2"/>
    </person>
    <person id="ped117" depart="127.02" type="ped_pedestrian">
        <walk from="1008829685" to="896286605#0"/>
    </person>
    <person id="ped118" depart="128.11" type="ped_pedestrian">
        <walk from="893397123#3" to="-554016159#5"/>
    </person>
    <person id="ped119" depart="129.19" type="ped_pedestrian">
        <walk from="-730902534#1" to="-226968119#7"/>
    </person>
    <person id="ped120" depart="130.28" type="ped_pedestrian">
        <walk from="560686842#1" to="8032147#3"/>
    </person>
    <person id="ped121" depart="131.36" type="ped_pedestrian">
        <walk from="111489561#3" to="244142656#0"/>
    </person>
    <person id="ped122" depart="132.45" type="ped_pedestrian">
        <walk from="-345750137#2" to="953298667#0"/>
    </person>
    <person id="ped123" depart="133.53" type="ped_pedestrian">
        <walk from="626604710#12" to="7998645#15"/>
    </person>
    <person id="ped124" depart="134.62" type="ped_pedestrian">
        <walk from="-1091859876" to="507521702#1"/>
    </person>
    <person id="ped125" depart="135.71" type="ped_pedestrian">
        <walk from="1017820259#2" to="953396664#2"/>
    </person>
    <person id="ped126" depart="136.79" type="ped_pedestrian">
        <walk from="609935510#4" to="758152468#5"/>
    </person>
    <person id="ped127" depart="137.88" type="ped_pedestrian">
        <walk from="626604710#12" to="-930361147"/>
    </person>
    <person id="ped128" depart="138.96" type="ped_pedestrian">
        <walk from="781420022#0" to="753712980"/>
    </person>
    <person id="ped129" depart="140.05" type="ped_pedestrian">
        <walk from="-587020413#1" to="6272461#4"/>
    </person>
    <person id="ped130" depart="141.13" type="ped_pedestrian">
        <walk from="116863331#1" to="1008074581#2"/>
    </person>
    <person id="ped131" depart="142.22" type="ped_pedestrian">
        <walk from="585842446#0" to="-624187489"/>
    </person>
    <person id="ped132" depart="143.31" type="ped_pedestrian">
        <walk from="1017601818#1" to="758152469"/>
    </person>
    <person id="ped133" depart="144.39" type="ped_pedestrian">
        <walk from="975654644#2" to="-957045503#0"/>
    </person>
    <person id="ped134" depart="145.48" type="ped_pedestrian">
        <walk from="279388818#0" to="111489538#0"/>
    </person>
    <person id="ped135" depart="146.56" type="ped_pedestrian">
        <walk from="985518761" to="169558503#1"/>
    </person>
    <person id="ped136" depart="147.65" type="ped_pedestrian">
        <walk from="955313308#3" to="-23840256"/>
    </person>
    <person id="ped137" depart="148.73" type="ped_pedestrian">
        <walk from="974662675" to="-896286605#0"/>
    </person>
    <person id="ped138" depart="149.82" type="ped_pedestrian">
        <walk from="236570790#5" to="138943452#0"/>
    </person>
    <person id="ped139" depart="150.91" type="ped_pedestrian">
        <walk from="1095193818#3" to="220574070#5"/>
    </person>
    <person id="ped140" depart="151.99" type="ped_pedestrian">
        <walk from="-781420006#0" to="392638197"/>
    </person>
    <person id="ped141" depart="153.08" type="ped_pedestrian">
        <walk from="-1001823048#0" to="949401325"/>
    </person>
    <person id="ped142" depart="154.16" type="ped_pedestrian">
        <walk from="169558513" to="441238090#3"/>
    </person>
    <person id="ped143" depart="155.25" type="ped_pedestrian">
        <walk from="528897624" to="345750123#2"/>
    </person>
    <person id="ped144" depart="156.33" type="ped_pedestrian">
        <walk from="1078796298" to="-169558504"/>
    </person>
    <person id="ped145" depart="157.42" type="ped_pedestrian">
        <walk from="345750093#1" to="1017601831#1"/>
    </person>
    <person id="ped146" depart="158.50" type="ped_pedestrian">
        <walk from="1013320808#1" to="730902528#0"/>
    </person>
    <person id="ped147" depart="159.59" type="ped_pedestrian">
        <walk from="441238090#5" to="1002239207#0"/>
    </person>
    <person id="ped148" depart="160.68" type="ped_pedestrian">
        <walk from="1010187816#3" to="111489569#1"/>
    </person>
    <person id="ped149" depart="161.76" type="ped_pedestrian">
        <walk from="111489547#4" to="1001493260#0"/>
    </person>
    <person id="ped150" depart="162.85" type="ped_pedestrian">
        <walk from="1004155558" to="178872042#7"/>
    </person>
    <person id="ped151" depart="163.93" type="ped_pedestrian">
        <walk from="-1001822975" to="-983219707#4"/>
    </person>
    <person id="ped152" depart="165.02" type="ped_pedestrian">
        <walk from="340950639" to="1174257522#3"/>
    </person>
    <person id="ped153" depart="166.10" type="ped_pedestrian">
        <walk from="1157634888#4" to="-560686859#1"/>
    </person>
    <person id="ped154" depart="167.19" type="ped_pedestrian">
        <walk from="118566490" to="937743706#1"/>
    </person>
    <person id="ped155" depart="168.28" type="ped_pedestrian">
        <walk from="587020413#0" to="-362040625#0"/>
    </person>
    <person id="ped156" depart="169.36" type="ped_pedestrian">
        <walk from="-181418882#1" to="154764152"/>
    </person>
    <person id="ped157" depart="170.45" type="ped_pedestrian">
        <walk from="259281582#2" to="1020362979"/>
    </person>
    <person id="ped158" depart="171.53" type="ped_pedestrian">
        <walk from="345750130#3" to="-6168350#0"/>
    </person>
    <person id="ped159" depart="172.62" type="ped_pedestrian">
        <walk from="-507521702#0" to="-1091144610#0"/>
    </person>
    <person id="ped160" depart="173.70" type="ped_pedestrian">
        <walk from="730902546#1" to="-170591789#1"/>
    </person>
    <person id="ped161" depart="174.79" type="ped_pedestrian">
        <walk from="1126950411" to="250660625#1"/>
    </person>
    <person id="ped162" depart="175.88" type="ped_pedestrian">
        <walk from="-48452091#2" to="362224173#5"/>
    </person>
    <person id="ped163" depart="176.96" type="ped_pedestrian">
        <walk from="1243065578" to="-684362354#0"/>
    </person>
    <person id="ped164" depart="178.05" type="ped_pedestrian">
        <walk from="340950641#7" to="-1008074583"/>
    </person>
    <person id="ped165" depart="179.13" type="ped_pedestrian">
        <walk from="-229688987#1" to="1149399001#0"/>
    </person>
    <person id="ped166" depart="180.22" type="ped_pedestrian">
        <walk from="-730902528#1" to="730902532"/>
    </person>
    <person id="ped167" depart="181.30" type="ped_pedestrian">
        <walk from="345750103#1" to="988936708"/>
    </person>
    <person id="ped168" depart="182.39" type="ped_pedestrian">
        <walk from="229716249#1" to="966487032"/>
    </person>
    <person id="ped169" depart="183.47" type="ped_pedestrian">
        <walk from="858082468#0" to="241882663#2"/>
    </person>
    <person id="ped170" depart="184.56" type="ped_pedestrian">
        <walk from="679378125" to="178872042#6"/>
    </person>
    <person id="ped171" depart="185.65" type="ped_pedestrian">
        <walk from="887864519#2" to="537438898#3"/>
    </person>
    <person id="ped172" depart="186.73" type="ped_pedestrian">
        <walk from="1189244045" to="-798328071#1"/>
    </person>
    <person id="ped173" depart="187.82" type="ped_pedestrian">
        <walk from="-708132128#0" to="265466998"/>
    </person>
    <person id="ped174" depart="188.90" type="ped_pedestrian">
        <walk from="552442847#2" to="156793842#0"/>
    </person>
    <person id="ped175" depart="189.99" type="ped_pedestrian">
        <walk from="25041603#3" to="-949170609#0"/>
    </person>
    <person id="ped176" depart="191.07" type="ped_pedestrian">
        <walk from="-181409024" to="-975654631"/>
    </person>
    <person id="ped177" depart="192.16" type="ped_pedestrian">
        <walk from="-943037453#12" to="1014036805#6"/>
    </person>
    <person id="ped178" depart="193.25" type="ped_pedestrian">
        <walk from="169558518#3" to="-265483112#1"/>
    </person>
    <person id="ped179" depart="194.33" type="ped_pedestrian">
        <walk from="-6272461#3" to="362040625#1"/>
    </person>
    <person id="ped180" depart="195.42" type="ped_pedestrian">
        <walk from="111489564" to="17065557#0"/>
    </person>
    <person id="ped181" depart="196.50" type="ped_pedestrian">
        <walk from="1138616918#3" to="943027540#4"/>
    </person>
    <person id="ped182" depart="197.59" type="ped_pedestrian">
        <walk from="225014692#0" to="362040645#1"/>
    </person>
    <person id="ped183" depart="198.67" type="ped_pedestrian">
        <walk from="732484194#1" to="552442847#1"/>
    </person>
    <person id="ped184" depart="199.76" type="ped_pedestrian">
        <walk from="1091859874#1" to="-1008111876"/>
    </person>
    <person id="ped185" depart="200.85" type="ped_pedestrian">
        <walk from="1055082101" to="544508813"/>
    </person>
    <person id="ped186" depart="201.93" type="ped_pedestrian">
        <walk from="178872042#10" to="235964000"/>
    </person>
    <person id="ped187" depart="203.02" type="ped_pedestrian">
        <walk from="-561193784#2" to="-561190191#0"/>
    </person>
    <person id="ped188" depart="204.10" type="ped_pedestrian">
        <walk from="1020365367#6" to="345757523#1"/>
    </person>
    <person id="ped189" depart="205.19" type="ped_pedestrian">
        <walk from="111489556" to="-355136903#9"/>
    </person>
    <person id="ped190" depart="206.27" type="ped_pedestrian">
        <walk from="1174257530#0" to="-244142664#6"/>
    </person>
    <person id="ped191" depart="207.36" type="ped_pedestrian">
        <walk from="244142659#1" to="-1104789242"/>
    </person>
    <person id="ped192" depart="208.44" type="ped_pedestrian">
        <walk from="1112270670" to="186376163#2"/>
    </person>
    <person id="ped193" depart="209.53" type="ped_pedestrian">
        <walk from="-261006685" to="116934434#0"/>
    </person>
    <person id="ped194" depart="210.62" type="ped_pedestrian">
        <walk from="-127729928#4" to="1091859871#1"/>
    </person>
    <person id="ped195" depart="211.70" type="ped_pedestrian">
        <walk from="-555816529#1" to="1017601814#2"/>
    </person>
    <person id="ped196" depart="212.79" type="ped_pedestrian">
        <walk from="552167779#1" to="1091859871#1"/>
    </person>
    <person id="ped197" depart="213.87" type="ped_pedestrian">
        <walk from="-758152468#0" to="-181409063#6"/>
    </person>
    <person id="ped198" depart="214.96" type="ped_pedestrian">
        <walk from="-1054520443#0" to="169558517#0"/>
    </person>
    <person id="ped199" depart="216.04" type="ped_pedestrian">
        <walk from="999618524" to="1054520438#4"/>
    </person>
    <person id="ped200" depart="217.13" type="ped_pedestrian">
        <walk from="331293892#1" to="560686857#6"/>
    </person>
    <person id="ped201" depart="218.22" type="ped_pedestrian">
        <walk from="339707395#2" to="544509211#0"/>
    </person>
    <person id="ped202" depart="219.30" type="ped_pedestrian">
        <walk from="966481930" to="-507521703"/>
    </person>
    <person id="ped203" depart="220.39" type="ped_pedestrian">
        <walk from="-244142662" to="345750119#0"/>
    </person>
    <person id="ped204" depart="221.47" type="ped_pedestrian">
        <walk from="186376161#2" to="-561190178#0"/>
    </person>
    <person id="ped205" depart="222.56" type="ped_pedestrian">
        <walk from="-355369865" to="23837566"/>
    </person>
    <person id="ped206" depart="223.64" type="ped_pedestrian">
        <walk from="537691926#0" to="-236570790#1"/>
    </person>
    <person id="ped207" depart="224.73" type="ped_pedestrian">
        <walk from="653125308" to="975030820#1"/>
    </person>
    <person id="ped208" depart="225.82" type="ped_pedestrian">
        <walk from="-229716249#0" to="-1093820563"/>
    </person>
    <person id="ped209" depart="226.90" type="ped_pedestrian">
        <walk from="1013320802#1" to="345754709#0"/>
    </person>
    <person id="ped210" depart="227.99" type="ped_pedestrian">
        <walk from="968122731#1" to="1113331793#1"/>
    </person>
    <person id="ped211" depart="229.07" type="ped_pedestrian">
        <walk from="439381429#0" to="-178872043#0"/>
    </person>
    <person id="ped212" depart="230.16" type="ped_pedestrian">
        <walk from="355285170#1" to="25041680#2"/>
    </person>
    <person id="ped213" depart="231.24" type="ped_pedestrian">
        <walk from="731835156#0" to="231086603#4"/>
    </person>
    <person id="ped214" depart="232.33" type="ped_pedestrian">
        <walk from="-244142643" to="986597260#1"/>
    </person>
    <person id="ped215" depart="233.41" type="ped_pedestrian">
        <walk from="560968586#1" to="1034201414#2"/>
    </person>
    <person id="ped216" depart="234.50" type="ped_pedestrian">
        <walk from="1149979544#2" to="1088449031#15"/>
    </person>
    <person id="ped217" depart="235.59" type="ped_pedestrian">
        <walk from="730902544" to="657272907#2"/>
    </person>
    <person id="ped218" depart="236.67" type="ped_pedestrian">
        <walk from="264530758" to="679378119#2"/>
    </person>
    <person id="ped219" depart="237.76" type="ped_pedestrian">
        <walk from="386327615" to="1157634864#1"/>
    </person>
    <person id="ped220" depart="238.84" type="ped_pedestrian">
        <walk from="507350116" to="975654633#2"/>
    </person>
    <person id="ped221" depart="239.93" type="ped_pedestrian">
        <walk from="-943037449#1" to="625785960"/>
    </person>
    <person id="ped222" depart="241.01" type="ped_pedestrian">
        <walk from="169558511" to="1201994513"/>
    </person>
    <person id="ped223" depart="242.10" type="ped_pedestrian">
        <walk from="1157634864#1" to="48452091#4"/>
    </person>
    <person id="ped224" depart="243.19" type="ped_pedestrian">
        <walk from="7998645#2" to="-684362353"/>
    </person>
    <person id="ped225" depart="244.27" type="ped_pedestrian">
        <walk from="1174257522#15" to="239965050"/>
    </person>
    <person id="ped226" depart="245.36" type="ped_pedestrian">
        <walk from="1091859871#0" to="-1149399001#1"/>
    </person>
    <person id="ped227" depart="246.44" type="ped_pedestrian">
        <walk from="-555816529#4" to="589773668"/>
    </person>