<?xml version="1.0" encoding="UTF-8"?>

<!-- generated on 2024-04-03 19:44:45.387279 by osmWebWizard.py v1_19_0+0000-baa66a0f364
<configuration>
    <net-file value="C:\Users\atp\Sumo\2024-04-03-19-44-07\osm.net.xml.gz"/>
    <output-trip-file value="C:\Users\atp\Sumo\2024-04-03-19-44-07\osm.passenger.trips.xml"/>
    <route-file value="C:\Users\atp\Sumo\2024-04-03-19-44-07\osm.passenger.rou.xml"/>
    <prefix value="veh"/>
    <trip-attributes value="departLane=&quot;best&quot;"/>
    <fringe-start-attributes value="departSpeed=&quot;max&quot;"/>
    <vehicle-class value="passenger"/>
    <lanes value="True"/>
    <fringe-factor value="5"/>
    <allow-fringe.min-length value="1000.0"/>
    <via-edge-types value="highway.motorway,highway.motorway_link,highway.trunk_link,highway.primary_link,highway.secondary_link,highway.tertiary_link"/>
    <min-distance value="300.0"/>
    <min-distance.fringe value="10.0"/>
    <remove-loops value="True"/>
    <validate value="True"/>
    <insertion-density value="12.0"/>
</configuration>
-->

<!-- generated on 2024-04-03 19:44:44 by Eclipse SUMO duarouter Version 1.19.0
<configuration xmlns:xsi="http://www.w3.org/2001/XMLSchema-instance" xsi:noNamespaceSchemaLocation="http://sumo.dlr.de/xsd/duarouterConfiguration.xsd">

    <input>
        <net-file value="C:\Users\atp\Sumo\2024-04-03-19-44-07\osm.net.xml.gz"/>
        <route-files value="C:\Users\atp\Sumo\2024-04-03-19-44-07\osm.passenger.trips.xml"/>
    </input>

    <output>
        <output-file value="C:\Users\atp\Sumo\2024-04-03-19-44-07\osm.passenger.trips.xml.tmp"/>
        <alternatives-output value="NUL"/>
        <write-trips value="true"/>
    </output>

    <processing>
        <remove-loops value="true"/>
    </processing>

    <time>
        <begin value="0.0"/>
        <end value="3600.0"/>
    </time>

    <report>
        <no-warnings value="true"/>
        <ignore-errors value="true"/>
        <no-step-log value="true"/>
    </report>

</configuration>
-->

<routes xmlns:xsi="http://www.w3.org/2001/XMLSchema-instance" xsi:noNamespaceSchemaLocation="http://sumo.dlr.de/xsd/routes_file.xsd">
    <vType id="veh_passenger" vClass="passenger"/>
    <trip id="veh0" type="veh_passenger" depart="0.00" departLane="best" from="292074963#2" to="1232718639"/>
    <trip id="veh1" type="veh_passenger" depart="1.49" departLane="best" from="1082258227" to="-7973120#1"/>
    <trip id="veh2" type="veh_passenger" depart="2.97" departLane="best" from="5151621#1" to="345760484#2"/>
    <trip id="veh3" type="veh_passenger" depart="4.46" departLane="best" from="674870447#2" to="-225014676#2"/>
    <trip id="veh4" type="veh_passenger" depart="5.95" departLane="best" from="175718553#3" to="-127729926#4"/>
    <trip id="veh5" type="veh_passenger" depart="7.44" departLane="best" from="6272461#0" to="226968119#5"/>
    <trip id="veh7" type="veh_passenger" depart="10.41" departLane="best" from="292074965#6" to="236570787"/>
    <trip id="veh8" type="veh_passenger" depart="11.90" departLane="best" from="-6272461#3" to="259269376#1"/>
    <trip id="veh9" type="veh_passenger" depart="13.39" departLane="best" from="560686858" to="-1054520443#0"/>
    <trip id="veh10" type="veh_passenger" depart="14.87" departLane="best" from="560686857#4" to="355370659#1"/>
    <trip id="veh11" type="veh_passenger" depart="16.36" departLane="best" from="138943456" to="-345760483#0"/>
    <trip id="veh12" type="veh_passenger" depart="17.85" departLane="best" from="8018915" to="142898137#0"/>
    <trip id="veh13" type="veh_passenger" depart="19.33" departLane="best" from="6168744#3" to="-279381243#0"/>
    <trip id="veh14" type="veh_passenger" depart="20.82" departLane="best" from="560686857#6" to="492547870#0"/>
    <trip id="veh15" type="veh_passenger" depart="22.31" departLane="best" from="231086603#5" to="863277517#6"/>
    <trip id="veh16" type="veh_passenger" depart="23.80" departLane="best" from="16369712#6" to="236571102#0"/>
    <trip id="veh17" type="veh_passenger" depart="25.28" departLane="best" from="606162776#1" to="28593304-AddedOffRampEdge"/>
    <trip id="veh18" type="veh_passenger" depart="26.77" departLane="best" from="6228383#1" to="251819525#2-AddedOnRampEdge"/>
    <trip id="veh19" type="veh_passenger" depart="28.26" departLane="best" from="-37932314#0" to="-138943460#5"/>
    <trip id="veh20" type="veh_passenger" depart="29.74" departLane="best" from="-657272932#0" to="118871348#1"/>
    <trip id="veh21" type="veh_passenger" depart="31.23" departLane="best" from="226968119#7" to="1126570767#1"/>
    <trip id="veh22" type="veh_passenger" depart="32.72" departLane="best" from="292074962#1" to="16369712#10"/>
    <trip id="veh23" type="veh_passenger" depart="34.21" departLane="best" from="16120724#0" to="-6272461#5"/>
    <trip id="veh24" type="veh_passenger" depart="35.69" departLane="best" from="292074965#16" to="279381247#2"/>
    <trip id="veh25" type="veh_passenger" depart="37.18" departLane="best" from="-37932314#0" to="-492547870#1"/>
    <trip id="veh26" type="veh_passenger" depart="38.67" departLane="best" departSpeed="max" from="-355143063#2" to="16764285#3"/>
    <trip id="veh27" type="veh_passenger" depart="40.16" departLane="best" from="238993350#0" to="351002183#4"/>
    <trip id="veh28" type="veh_passenger" depart="41.64" departLane="best" from="6168668" to="55069412#1"/>
    <trip id="veh29" type="veh_passenger" depart="43.13" departLane="best" from="733027151#0" to="-13858884#6"/>
    <trip id="veh30" type="veh_passenger" depart="44.62" departLane="best" from="-1232718640#0" to="1089560861#2"/>
    <trip id="veh31" type="veh_passenger" depart="46.10" departLane="best" from="-6228005#3" to="7973120#6"/>
    <trip id="veh32" type="veh_passenger" depart="47.59" departLane="best" from="643485454#1" to="13858884#1"/>
    <trip id="veh33" type="veh_passenger" depart="49.08" departLane="best" from="30303388#0" to="-17065584#1"/>
    <trip id="veh34" type="veh_passenger" depart="50.57" departLane="best" from="731835157#6" to="19725814"/>
    <trip id="veh35" type="veh_passenger" depart="52.05" departLane="best" from="1017601817#0" to="1004155557"/>
    <trip id="veh36" type="veh_passenger" depart="53.54" departLane="best" from="-24590379" to="-1054520442"/>
    <trip id="veh37" type="veh_passenger" depart="55.03" departLane="best" from="254622402#3" to="705295130#0"/>
    <trip id="veh40" type="veh_passenger" depart="59.49" departLane="best" from="-226863633#5" to="-138943460#7"/>
    <trip id="veh41" type="veh_passenger" depart="60.98" departLane="best" departSpeed="max" from="-229746975#3" to="28817347#0"/>
    <trip id="veh42" type="veh_passenger" depart="62.46" departLane="best" from="554032242#0" to="-176214937"/>
    <trip id="veh43" type="veh_passenger" depart="63.95" departLane="best" from="-175834154" to="331293892#1"/>
    <trip id="veh44" type="veh_passenger" depart="65.44" departLane="best" from="1016426336#0" to="230979882#3"/>
    <trip id="veh45" type="veh_passenger" depart="66.93" departLane="best" from="863277517#12" to="6227790#9"/>
    <trip id="veh46" type="veh_passenger" depart="68.41" departLane="best" from="-1149399002#2" to="46041231"/>
    <trip id="veh47" type="veh_passenger" depart="69.90" departLane="best" from="351002183#6" to="235963998#0"/>
    <trip id="veh48" type="veh_passenger" depart="71.39" departLane="best" from="1017601830#2" to="292074963#2"/>
    <trip id="veh49" type="veh_passenger" depart="72.87" departLane="best" departSpeed="max" from="-23017285" to="181418887#3"/>
    <trip id="veh50" type="veh_passenger" depart="74.36" departLane="best" from="226958380#6" to="-5151738#0"/>
    <trip id="veh51" type="veh_passenger" depart="75.85" departLane="best" from="731835157#4" to="6271239#3"/>
    <trip id="veh52" type="veh_passenger" depart="77.34" departLane="best" from="116934432#1" to="292074963#0"/>
    <trip id="veh53" type="veh_passenger" depart="78.82" departLane="best" from="279381264#1" to="345751062#0"/>
    <trip id="veh54" type="veh_passenger" depart="80.31" departLane="best" from="5204192" to="235965687#0"/>
    <trip id="veh55" type="veh_passenger" depart="81.80" departLane="best" departSpeed="max" from="548302276" to="-230979882#7"/>
    <trip id="veh56" type="veh_passenger" depart="83.29" departLane="best" from="-1004155557" to="138943452#1"/>
    <trip id="veh57" type="veh_passenger" depart="84.77" departLane="best" from="-1222109253#0" to="733009962"/>
    <trip id="veh58" type="veh_passenger" depart="86.26" departLane="best" from="643485456#1" to="607010193"/>
    <trip id="veh60" type="veh_passenger" depart="89.23" departLane="best" from="643485456#0" to="-7973123#2"/>
    <trip id="veh61" type="veh_passenger" depart="90.72" departLane="best" from="226863628#2" to="226863633#0"/>
    <trip id="veh62" type="veh_passenger" depart="92.21" departLane="best" from="-19526831#3" to="517156296#1"/>
    <trip id="veh63" type="veh_passenger" depart="93.70" departLane="best" from="187844363" to="-259280132"/>
    <trip id="veh64" type="veh_passenger" depart="95.18" departLane="best" departSpeed="max" from="20096593#0" to="236570790#4"/>
    <trip id="veh65" type="veh_passenger" depart="96.67" departLane="best" from="1017601817#0" to="6272461#2"/>
    <trip id="veh66" type="veh_passenger" depart="98.16" departLane="best" from="175765709#1" to="657272874#0"/>
    <trip id="veh67" type="veh_passenger" depart="99.65" departLane="best" from="235965687#1" to="492547870#2"/>
    <trip id="veh68" type="veh_passenger" depart="101.13" departLane="best" from="-587020413#1" to="-127729926#2"/>
    <trip id="veh69" type="veh_passenger" depart="102.62" departLane="best" from="966590152#1" to="292074965#15"/>
    <trip id="veh70" type="veh_passenger" depart="104.11" departLane="best" from="180870216#1" to="229746975#3"/>
    <trip id="veh71" type="veh_passenger" depart="105.59" departLane="best" from="-236570790#4" to="-7973120#3"/>
    <trip id="veh72" type="veh_passenger" depart="107.08" departLane="best" from="138943453#2" to="259269376#1"/>
    <trip id="veh73" type="veh_passenger" depart="108.57" departLane="best" from="-759536978" to="-733027151#0"/>
    <trip id="veh74" type="veh_passenger" depart="110.06" departLane="best" from="-19526831#7" to="29015028"/>
    <trip id="veh75" type="veh_passenger" depart="111.54" departLane="best" from="-733027151#0" to="731835156#1"/>
    <trip id="veh76" type="veh_passenger" depart="113.03" departLane="best" from="-6228005#1" to="-181418879#0"/>
    <trip id="veh77" type="veh_passenger" depart="114.52" departLane="best" from="7973122#2" to="331293889#1"/>
    <trip id="veh78" type="veh_passenger" depart="116.00" departLane="best" from="6234788#1" to="-279381243#6"/>
    <trip id="veh79" type="veh_passenger" depart="117.49" departLane="best" from="755853216#0" to="248547128#2"/>
    <trip id="veh80" type="veh_passenger" depart="118.98" departLane="best" from="19725510#3" to="552895422#1"/>
    <trip id="veh82" type="veh_passenger" depart="121.95" departLane="best" from="226968119#3" to="-181418879#2"/>
    <trip id="veh83" type="veh_passenger" depart="123.44" departLane="best" from="175765709#2" to="20096722#5"/>
    <trip id="veh84" type="veh_passenger" depart="124.93" departLane="best" from="-492547872#2" to="33737931#0"/>
    <trip id="veh85" type="veh_passenger" depart="126.42" departLane="best" from="943027532#1" to="-226968119#15"/>
    <trip id="veh86" type="veh_passenger" depart="127.90" departLane="best" from="16776434#1" to="148887002#0"/>
    <trip id="veh87" type="veh_passenger" depart="129.39" departLane="best" from="-6228383#1" to="1012329051#0"/>
    <trip id="veh88" type="veh_passenger" depart="130.88" departLane="best" from="5151738#2" to="-19573436#2"/>
    <trip id="veh89" type="veh_passenger" depart="132.36" departLane="best" from="175718553#3" to="1146137151#1"/>
    <trip id="veh91" type="veh_passenger" depart="135.34" departLane="best" from="181002036#2" to="6227790#9"/>
    <trip id="veh92" type="veh_passenger" depart="136.83" departLane="best" from="236570790#5" to="157721032"/>
    <trip id="veh93" type="veh_passenger" depart="138.31" departLane="best" from="996059494#1" to="607010196"/>
    <trip id="veh94" type="veh_passenger" depart="139.80" departLane="best" from="-862844375#1" to="732157307#2"/>
    <trip id="veh95" type="veh_passenger" depart="141.29" departLane="best" from="-6170121#0" to="-46041120#3"/>
    <trip id="veh98" type="veh_passenger" depart="145.75" departLane="best" from="16369712#7" to="943027532#3"/>
    <trip id="veh99" type="veh_passenger" depart="147.24" departLane="best" from="1017601817#2" to="-552894901#2"/>
    <trip id="veh100" type="veh_passenger" depart="148.72" departLane="best" from="187844372#0" to="180870212#0"/>
    <trip id="veh101" type="veh_passenger" depart="150.21" departLane="best" from="8018915" to="966590152#2"/>
    <trip id="veh102" type="veh_passenger" depart="151.70" departLane="best" from="236571102#4" to="46041125#5"/>
    <trip id="veh103" type="veh_passenger" depart="153.19" departLane="best" from="-331293887#0" to="236570788#1"/>
    <trip id="veh104" type="veh_passenger" depart="154.67" departLane="best" from="862844375#0" to="254622402#1"/>
    <trip id="veh105" type="veh_passenger" depart="156.16" departLane="best" from="236570328#0" to="-5151738#1"/>
    <trip id="veh107" type="veh_passenger" depart="159.13" departLane="best" from="226958382#3" to="617979145#1"/>
    <trip id="veh108" type="veh_passenger" depart="160.62" departLane="best" departSpeed="max" from="-345751062#1" to="812948871"/>
    <trip id="veh109" type="veh_passenger" depart="162.11" departLane="best" from="-216613208#2" to="-552894429#1"/>
    <trip id="veh110" type="veh_passenger" depart="163.60" departLane="best" from="26299577#1" to="345751062#1"/>
    <trip id="veh111" type="veh_passenger" depart="165.08" departLane="best" from="-7973120#5" to="-24590379"/>
    <trip id="veh112" type="veh_passenger" depart="166.57" departLane="best" departSpeed="max" from="657272931" to="1004155557"/>
    <trip id="veh113" type="veh_passenger" depart="168.06" departLane="best" from="187844379#0" to="28593304-AddedOnRampEdge"/>
    <trip id="veh114" type="veh_passenger" depart="169.55" departLane="best" from="175718552#2" to="259118687#4"/>
    <trip id="veh115" type="veh_passenger" depart="171.03" departLane="best" from="227213447#0" to="742835111"/>
    <trip id="veh116" type="veh_passenger" depart="172.52" departLane="best" from="-591701694#0" to="46041125#13"/>
    <trip id="veh117" type="veh_passenger" depart="174.01" departLane="best" from="7973122#3" to="-17065584#1"/>
    <trip id="veh118" type="veh_passenger" depart="175.49" departLane="best" departSpeed="max" from="345760480#0" to="1232718638#1"/>
    <trip id="veh120" type="veh_passenger" depart="178.47" departLane="best" from="19573436#4" to="19725814"/>
    <trip id="veh121" type="veh_passenger" depart="179.96" departLane="best" from="996059494#0" to="966590152#3"/>
    <trip id="veh122" type="veh_passenger" depart="181.44" departLane="best" from="19573436#7" to="657272874#2"/>
    <trip id="veh123" type="veh_passenger" depart="182.93" departLane="best" from="1017601817#2" to="739697553"/>
    <trip id="veh124" type="veh_passenger" depart="184.42" departLane="best" from="657272874#0" to="643485455"/>
    <trip id="veh125" type="veh_passenger" depart="185.90" departLane="best" from="-16120501#1" to="350680056#1"/>
    <trip id="veh126" type="veh_passenger" depart="187.39" departLane="best" from="607010189" to="37932314#1"/>
    <trip id="veh127" type="veh_passenger" depart="188.88" departLane="best" from="30303387#0" to="-1089560861#1"/>
    <trip id="veh128" type="veh_passenger" depart="190.37" departLane="best" departSpeed="max" from="561168709" to="-1232718638#0"/>
    <trip id="veh129" type="veh_passenger" depart="191.85" departLane="best" from="331293887#1" to="7973120#0"/>
    <trip id="veh130" type="veh_passenger" depart="193.34" departLane="best" departSpeed="max" from="-26610578#2" to="236570790#1"/>
    <trip id="veh131" type="veh_passenger" depart="194.83" departLane="best" from="-229716163#0" to="236571102#2"/>
    <trip id="veh132" type="veh_passenger" depart="196.32" departLane="best" from="1054520443#1" to="279381243#1"/>
    <trip id="veh133" type="veh_passenger" depart="197.80" departLane="best" from="46041125#4" to="-6234788#4"/>
    <trip id="veh134" type="veh_passenger" depart="199.29" departLane="best" from="29015466#1" to="-1073177424"/>
    <trip id="veh135" type="veh_passenger" depart="200.78" departLane="best" from="-216613208#2" to="731835156#1"/>
    <trip id="veh136" type="veh_passenger" depart="202.26" departLane="best" from="6168671" to="226863633#0"/>
    <trip id="veh137" type="veh_passenger" depart="203.75" departLane="best" from="175765709#2" to="1111709097"/>
    <trip id="veh138" type="veh_passenger" depart="205.24" departLane="best" from="-1013320831#1" to="539479247"/>
    <trip id="veh139" type="veh_passenger" depart="206.73" departLane="best" from="5151734#1" to="236571102#0"/>
    <trip id="veh140" type="veh_passenger" depart="208.21" departLane="best" from="-175834154" to="-1149399001#0"/>
    <trip id="veh141" type="veh_passenger" depart="209.70" departLane="best" from="-19725473#0" to="657272874#1"/>
    <trip id="veh142" type="veh_passenger" depart="211.19" departLane="best" departSpeed="max" from="70848536#0" to="236570787"/>
    <trip id="veh143" type="veh_passenger" depart="212.68" departLane="best" from="607010190" to="259118687#3"/>
    <trip id="veh144" type="veh_passenger" depart="214.16" departLane="best" from="-29015339#1" to="24733239#5"/>
    <trip id="veh145" type="veh_passenger" depart="215.65" departLane="best" from="1226175099#0" to="705295622#2"/>
    <trip id="veh146" type="veh_passenger" depart="217.14" departLane="best" from="554032242#7" to="6227790#8"/>
    <trip id="veh147" type="veh_passenger" depart="218.62" departLane="best" from="705295622#2" to="6272461#6"/>
    <trip id="veh148" type="veh_passenger" depart="220.11" departLane="best" from="-974589447" to="226968119#6"/>
    <trip id="veh149" type="veh_passenger" depart="221.60" departLane="best" from="-55065902#1" to="657272874#3"/>
    <trip id="veh150" type="veh_passenger" depart="223.09" departLane="best" from="17065557#1" to="28765643#1"/>
    <trip id="veh151" type="veh_passenger" depart="224.57" departLane="best" from="-331293887#0" to="-733027151#0"/>
    <trip id="veh152" type="veh_passenger" depart="226.06" departLane="best" from="6234788#3" to="226968119#7"/>
    <trip id="veh153" type="veh_passenger" depart="227.55" departLane="best" from="560686859#1" to="643485456#1"/>
    <trip id="veh154" type="veh_passenger" depart="229.03" departLane="best" from="1232718640#1" to="5151459"/>
    <trip id="veh155" type="veh_passenger" depart="230.52" departLane="best" from="138943448#3" to="733030776#0"/>
    <trip id="veh156" type="veh_passenger" depart="232.01" departLane="best" from="560686857#0" to="6234672"/>
    <trip id="veh157" type="veh_passenger" depart="233.50" departLane="best" from="560686859#0" to="1089560861#1"/>
    <trip id="veh158" type="veh_passenger" depart="234.98" departLane="best" from="552894899#1" to="-227213447#0"/>
    <trip id="veh159" type="veh_passenger" depart="236.47" departLane="best" from="6272461#4" to="6227790#4"/>
    <trip id="veh160" type="veh_passenger" depart="237.96" departLane="best" from="-6272461#6" to="567506060#1"/>
    <trip id="veh161" type="veh_passenger" depart="239.45" departLane="best" from="554032242#6" to="-7973122#0"/>
    <trip id="veh162" type="veh_passenger" depart="240.93" departLane="best" from="-1232718639" to="-589705895#1"/>
    <trip id="veh163" type="veh_passenger" depart="242.42" departLane="best" from="138943443#0" to="6234672"/>
    <trip id="veh164" type="veh_passenger" depart="243.91" departLane="best" from="818574683#1" to="1149398999"/>
    <trip id="veh165" type="veh_passenger" depart="245.39" departLane="best" from="254622402#3" to="172620773#2"/>
    <trip id="veh166" type="veh_passenger" depart="246.88" departLane="best" from="937743706#1" to="235428364"/>
    <trip id="veh167" type="veh_passenger" depart="248.37" departLane="best" from="7973120#1" to="236570790#1"/>
    <trip id="veh168" type="veh_passenger" depart="249.86" departLane="best" from="863277517#10" to="-5151738#0"/>
    <trip id="veh169" type="veh_passenger" depart="251.34" departLane="best" from="812948874" to="1082258227"/>
    <trip id="veh170" type="veh_passenger" depart="252.83" departLane="best" departSpeed="max" from="-229746975#3" to="181418887#3"/>
    <trip id="veh171" type="veh_passenger" depart="254.32" departLane="best" from="-492547872#2" to="13659175#1"/>
    <trip id="veh172" type="veh_passenger" depart="255.81" departLane="best" from="279381247#1" to="-226986353#1"/>
    <trip id="veh174" type="veh_passenger" depart="258.78" departLane="best" from="1004155558" to="423202469#0"/>
    <trip id="veh175" type="veh_passenger" depart="260.27" departLane="best" from="1012329053" to="732157307#1"/>
    <trip id="veh176" type="veh_passenger" depart="261.75" departLane="best" from="292074962#2" to="46041125#8"/>
    <trip id="veh177" type="veh_passenger" depart="263.24" departLane="best" from="5151738#0" to="331293891"/>
    <trip id="veh178" type="veh_passenger" depart="264.73" departLane="best" from="157482093#1" to="-181409049#0"/>
    <trip id="veh179" type="veh_passenger" depart="266.22" departLane="best" from="331293889#0" to="138943458#2"/>
    <trip id="veh180" type="veh_passenger" depart="267.70" departLane="best" from="46041173#0" to="1232718639"/>
    <trip id="veh181" type="veh_passenger" depart="269.19" departLane="best" from="-1226175100" to="-175718553#3"/>
    <trip id="veh182" type="veh_passenger" depart="270.68" departLane="best" from="16776376#2" to="-1226175100"/>
    <trip id="veh183" type="veh_passenger" depart="272.16" departLane="best" from="24733230#7" to="175842397#1"/>
    <trip id="veh184" type="veh_passenger" depart="273.65" departLane="best" from="-7973120#2" to="345760484#0"/>
    <trip id="veh185" type="veh_passenger" depart="275.14" departLane="best" from="708132128#3" to="285498075#1"/>
    <trip id="veh186" type="veh_passenger" depart="276.63" departLane="best" from="116934432#9" to="236570790#1"/>
    <trip id="veh187" type="veh_passenger" depart="278.11" departLane="best" from="1004155557" to="-116934432#9"/>
    <trip id="veh188" type="veh_passenger" depart="279.60" departLane="best" from="175834155#6" to="254622402#2"/>
    <trip id="veh189" type="veh_passenger" depart="281.09" departLane="best" from="30303387#1" to="20096722#13"/>
    <trip id="veh190" type="veh_passenger" depart="282.58" departLane="best" from="181002035#2" to="657272874#2"/>
    <trip id="veh191" type="veh_passenger" depart="284.06" departLane="best" from="19725814" to="708132128#0"/>
    <trip id="veh192" type="veh_passenger" depart="285.55" departLane="best" from="554032242#7" to="-482038394#0"/>
    <trip id="veh193" type="veh_passenger" depart="287.04" departLane="best" from="-226855479#0" to="229746975#0"/>
    <trip id="veh194" type="veh_passenger" depart="288.52" departLane="best" from="29015188" to="142271540"/>
    <trip id="veh195" type="veh_passenger" depart="290.01" departLane="best" from="345760483#0" to="-7973120#3"/>
    <trip id="veh196" type="veh_passenger" depart="291.50" departLane="best" from="954176189#1" to="21308292#2"/>
    <trip id="veh197" type="veh_passenger" depart="292.99" departLane="best" from="6170178#3" to="-18677910#0"/>
    <trip id="veh198" type="veh_passenger" depart="294.47" departLane="best" from="174321272#0" to="28850118"/>
    <trip id="veh199" type="veh_passenger" depart="295.96" departLane="best" from="-55065902#1" to="355370580#0"/>
    <trip id="veh200" type="veh_passenger" depart="297.45" departLane="best" from="-226863630#0" to="-996059494#0"/>
    <trip id="veh201" type="veh_passenger" depart="298.94" departLane="best" from="30303388#10" to="-1054520441#0"/>
    <trip id="veh202" type="veh_passenger" depart="300.42" departLane="best" departSpeed="max" from="51567738" to="187844363"/>
    <trip id="veh203" type="veh_passenger" depart="301.91" departLane="best" from="-227496097#1" to="180870216#1"/>
    <trip id="veh204" type="veh_passenger" depart="303.40" departLane="best" from="-46041120#2" to="8032410#1"/>
    <trip id="veh205" type="veh_passenger" depart="304.88" departLane="best" from="226968119#7" to="157482093#2"/>
    <trip id="veh206" type="veh_passenger" depart="306.37" departLane="best" from="-974589447" to="6170121#1"/>
    <trip id="veh207" type="veh_passenger" depart="307.86" departLane="best" from="187844375" to="560686857#1"/>
    <trip id="veh208" type="veh_passenger" depart="309.35" departLane="best" from="331293892#1" to="-954176189#2"/>
    <trip id="veh209" type="veh_passenger" depart="310.83" departLane="best" from="26299577#2" to="7982500#3"/>
    <trip id="veh210" type="veh_passenger" depart="312.32" departLane="best" from="674870447#0" to="280277072"/>
    <trip id="veh211" type="veh_passenger" depart="313.81" departLane="best" from="606162776#3" to="236570790#1"/>
    <trip id="veh212" type="veh_passenger" depart="315.29" departLane="best" from="698562579" to="5151676#1"/>
    <trip id="veh213" type="veh_passenger" depart="316.78" departLane="best" from="197710144" to="1017601830#2"/>
    <trip id="veh214" type="veh_passenger" depart="318.27" departLane="best" from="-958856730#6" to="292074962#1"/>
    <trip id="veh215" type="veh_passenger" depart="319.76" departLane="best" from="537828718#0" to="23017285"/>
    <trip id="veh216" type="veh_passenger" depart="321.24" departLane="best" departSpeed="max" from="28850117#0" to="1109996890"/>
    <trip id="veh217" type="veh_passenger" depart="322.73" departLane="best" departSpeed="max" from="-207320725" to="116934432#6"/>
    <trip id="veh218" type="veh_passenger" depart="324.22" departLane="best" from="1054520442" to="138943448#1"/>
    <trip id="veh219" type="veh_passenger" depart="325.71" departLane="best" from="235965687#1" to="-28850117#0"/>
    <trip id="veh220" type="veh_passenger" depart="327.19" departLane="best" from="-760603095" to="355365984#5"/>
    <trip id="veh221" type="veh_passenger" depart="328.68" departLane="best" from="381987794#2" to="-175718553#0"/>
    <trip id="veh222" type="veh_passenger" depart="330.17" departLane="best" from="17065557#3" to="236570328#0"/>
    <trip id="veh223" type="veh_passenger" depart="331.65" departLane="best" from="175718550#2" to="-6272461#1"/>
    <trip id="veh224" type="veh_passenger" depart="333.14" departLane="best" from="175718553#1" to="731835156#1"/>
    <trip id="veh225" type="veh_passenger" depart="334.63" departLane="best" from="254622402#2" to="355365984#9"/>
    <trip id="veh226" type="veh_passenger" depart="336.12" departLane="best" from="6227790#4" to="5219265#1"/>
    <trip id="veh227" type="veh_passenger" depart="337.60" departLane="best" from="-165370882#0" to="-1054520441#0"/>
    <trip id="veh229" type="veh_passenger" depart="340.58" departLane="best" from="617979145#7" to="7982500#8"/>
    <trip id="veh230" type="veh_passenger" depart="342.07" departLane="best" from="175718552#2" to="5151738#1"/>
    <trip id="veh231" type="veh_passenger" depart="343.55" departLane="best" from="236570788#1" to="236571102#0"/>
    <trip id="veh233" type="veh_passenger" depart="346.53" departLane="best" from="180870212#0" to="-127729926#2"/>
    <trip id="veh234" type="veh_passenger" depart="348.01" departLane="best" from="138943452#3" to="732157307#4"/>
    <trip id="veh235" type="veh_passenger" depart="349.50" departLane="best" from="17064471#0" to="-46041120#0"/>
    <trip id="veh236" type="veh_passenger" depart="350.99" departLane="best" from="-657272882" to="-24733239#5"/>
    <trip id="veh237" type="veh_passenger" depart="352.48" departLane="best" from="28801553#3" to="1239668581"/>
    <trip id="veh238" type="veh_passenger" depart="353.96" departLane="best" from="16764285#4" to="-24733230#0"/>
    <trip id="veh241" type="veh_passenger" depart="358.42" departLane="best" from="16181909" to="16764285#1"/>
    <trip id="veh242" type="veh_passenger" depart="359.91" departLane="best" from="-6228005#5" to="138943453#2"/>
    <trip id="veh243" type="veh_passenger" depart="361.40" departLane="best" from="517156296#1" to="16764285#1"/>
    <trip id="veh244" type="veh_passenger" depart="362.89" departLane="best" departSpeed="max" from="51567738" to="607010193"/>
    <trip id="veh245" type="veh_passenger" depart="364.37" departLane="best" from="996059494#2" to="657272868"/>
    <trip id="veh246" type="veh_passenger" depart="365.86" departLane="best" from="1222109253#0" to="235965687#1"/>
    <trip id="veh247" type="veh_passenger" depart="367.35" departLane="best" from="996059494#2" to="157479047#2"/>
    <trip id="veh248" type="veh_passenger" depart="368.84" departLane="best" from="292074965#7" to="552894517#0"/>
    <trip id="veh250" type="veh_passenger" depart="371.81" departLane="best" from="7982500#2" to="6228005#4"/>
    <trip id="veh251" type="veh_passenger" depart="373.30" departLane="best" from="1222109253#1" to="-331293890"/>
    <trip id="veh252" type="veh_passenger" depart="374.78" departLane="best" from="24733230#4" to="-331293890"/>
    <trip id="veh254" type="veh_passenger" depart="377.76" departLane="best" departSpeed="max" from="364097733" to="5219265#1"/>
    <trip id="veh255" type="veh_passenger" depart="379.25" departLane="best" departSpeed="max" from="-355365984#9" to="279381247#0"/>
    <trip id="veh256" type="veh_passenger" depart="380.73" departLane="best" departSpeed="max" from="51567738" to="138943450#2"/>
    <trip id="veh257" type="veh_passenger" depart="382.22" departLane="best" from="567506060#0" to="812948877"/>