<?xml version="1.0" encoding="UTF-8"?>

<!-- generated on 2024-04-03 19:44:38.892311 by osmWebWizard.py v1_19_0+0000-baa66a0f364
<configuration>
    <net-file value="C:\Users\atp\Sumo\2024-04-03-19-44-07\osm.net.xml.gz"/>
    <output-trip-file value="C:\Users\atp\Sumo\2024-04-03-19-44-07\osm.bus.trips.xml"/>
    <route-file value="C:\Users\atp\Sumo\2024-04-03-19-44-07\osm.bus.rou.xml"/>
    <prefix value="bus"/>
    <trip-attributes value="departLane=&quot;best&quot;"/>
    <fringe-start-attributes value="departSpeed=&quot;max&quot;"/>
    <vehicle-class value="bus"/>
    <fringe-factor value="5"/>
    <vclass value="bus"/>
    <via-edge-types value="highway.motorway,highway.motorway_link,highway.trunk_link,highway.primary_link,highway.secondary_link,highway.tertiary_link"/>
    <min-distance value="600.0"/>
    <min-distance.fringe value="10.0"/>
    <remove-loops value="True"/>
    <validate value="True"/>
    <insertion-density value="4.0"/>
    <guiShape="bus"/>
</configuration>
-->

<!-- generated on 2024-04-03 19:44:38 by Eclipse SUMO duarouter Version 1.19.0
<configuration xmlns:xsi="http://www.w3.org/2001/XMLSchema-instance" xsi:noNamespaceSchemaLocation="http://sumo.dlr.de/xsd/duarouterConfiguration.xsd">

    <input>
        <net-file value="C:\Users\atp\Sumo\2024-04-03-19-44-07\osm.net.xml.gz"/>
        <route-files value="C:\Users\atp\Sumo\2024-04-03-19-44-07\osm.bus.trips.xml"/>
    </input>

    <output>
        <output-file value="C:\Users\atp\Sumo\2024-04-03-19-44-07\osm.bus.trips.xml.tmp"/>
        <alternatives-output value="NUL"/>
        <write-trips value="true"/>
    </output>

    <processing>
        <remove-loops value="true"/>
    </processing>

    <time>
        <begin value="0.0"/>
        <end value="3600.0"/>
    </time>

    <report>
        <no-warnings value="true"/>
        <ignore-errors value="true"/>
        <no-step-log value="true"/>
    </report>

</configuration>
-->

<routes xmlns:xsi="http://www.w3.org/2001/XMLSchema-instance" xsi:noNamespaceSchemaLocation="http://sumo.dlr.de/xsd/routes_file.xsd">
    <vType id="bus_bus" vClass="bus"/>
    <trip id="bus0" type="bus_bus" depart="0.00" departLane="best" from="28801553#2" to="1232718640#1"/>
    <trip id="bus1" type="bus_bus" depart="4.43" departLane="best" from="-1013320831#1" to="-657272931"/>
    <trip id="bus2" type="bus_bus" depart="8.86" departLane="best" departSpeed="max" from="407552946" to="30303387#1"/>
    <trip id="bus3" type="bus_bus" depart="13.29" departLane="best" departSpeed="max" from="657272931" to="657272868"/>
    <trip id="bus5" type="bus_bus" depart="22.15" departLane="best" from="589705896" to="216613208#1"/>
    <trip id="bus7" type="bus_bus" depart="31.01" departLane="best" from="29015061#0" to="279381247#0"/>
    <trip id="bus9" type="bus_bus" depart="39.87" departLane="best" from="552894900#2" to="-1054520441#0"/>
    <trip id="bus10" type="bus_bus" depart="44.30" departLane="best" from="812948877" to="138943449#3"/>
    <trip id="bus11" type="bus_bus" depart="48.73" departLane="best" from="607010195" to="251819525#2-AddedOffRampEdge"/>
    <trip id="bus12" type="bus_bus" depart="53.16" departLane="best" from="552894518" to="355370659#1"/>
    <trip id="bus13" type="bus_bus" depart="57.59" departLane="best" from="226958380#0" to="882981167#4"/>
    <trip id="bus14" type="bus_bus" depart="62.02" departLane="best" from="157479047#0" to="23017285"/>
    <trip id="bus15" type="bus_bus" depart="66.45" departLane="best" from="561966868" to="26610578#2"/>
    <trip id="bus16" type="bus_bus" depart="70.88" departLane="best" from="617979145#8" to="236570328#1"/>
    <trip id="bus17" type="bus_bus" depart="75.31" departLane="best" from="6228383#2" to="1091144618"/>
    <trip id="bus18" type="bus_bus" depart="79.74" departLane="best" departSpeed="max" from="-207320725" to="760603095"/>
    <trip id="bus19" type="bus_bus" depart="84.17" departLane="best" from="226968119#6" to="1017601835#0"/>
    <trip id="bus20" type="bus_bus" depart="88.60" departLane="best" from="-287958495#0" to="156793846#2"/>
    <trip id="bus21" type="bus_bus" depart="93.03" departLane="best" from="156641025#4" to="-6228383#1"/>
    <trip id="bus22" type="bus_bus" depart="97.46" departLane="best" from="996059494#0" to="760603093#0"/>
    <trip id="bus23" type="bus_bus" depart="101.89" departLane="best" from="28850117#1" to="259118687#6"/>
    <trip id="bus24" type="bus_bus" depart="106.32" departLane="best" from="-345760484#1" to="-355370658#1"/>
    <trip id="bus25" type="bus_bus" depart="110.75" departLane="best" from="-331293887#0" to="16182736#0"/>
    <trip id="bus26" type="bus_bus" depart="115.18" departLane="best" from="-958856730#4" to="287958495#1"/>
    <trip id="bus27" type="bus_bus" depart="119.61" departLane="best" from="-227213447#0" to="331293883#1"/>
    <trip id="bus28" type="bus_bus" depart="124.04" departLane="best" from="605943740" to="5151676#1"/>
    <trip id="bus29" type="bus_bus" depart="128.47" departLane="best" from="116934432#9" to="958856730#6"/>
    <trip id="bus30" type="bus_bus" depart="132.90" departLane="best" from="-552894429#3" to="-7973122#1"/>
    <trip id="bus31" type="bus_bus" depart="137.33" departLane="best" from="29015466#1" to="16763344#1"/>
    <trip id="bus32" type="bus_bus" depart="141.76" departLane="best" departSpeed="max" from="70848536#0" to="-18677910#2"/>
    <trip id="bus33" type="bus_bus" depart="146.19" departLane="best" from="-974589447" to="-943027530#0"/>
    <trip id="bus34" type="bus_bus" depart="150.62" departLane="best" from="-229746975#2" to="1012329051#0"/>
    <trip id="bus35" type="bus_bus" depart="155.05" departLane="best" from="236571102#2" to="657272932#2"/>
    <trip id="bus36" type="bus_bus" depart="159.48" departLane="best" from="16369712#7" to="637107883#1"/>
    <trip id="bus38" type="bus_bus" depart="168.34" departLane="best" departSpeed="max" from="-229746975#3" to="279381247#2"/>
    <trip id="bus39" type="bus_bus" depart="172.77" departLane="best" from="543786575#0" to="175718550#2"/>
    <trip id="bus40" type="bus_bus" depart="177.20" departLane="best" from="-175782570" to="16369712#0"/>
    <trip id="bus41" type="bus_bus" depart="181.63" departLane="best" from="1016426336#0" to="226958385#0"/>
    <trip id="bus42" type="bus_bus" depart="186.06" departLane="best" from="882981166" to="6170178#3"/>
    <trip id="bus43" type="bus_bus" depart="190.49" departLane="best" from="116934432#5" to="355365983#0"/>
    <trip id="bus44" type="bus_bus" depart="194.92" departLane="best" from="311302072#1" to="-226968119#4"/>
    <trip id="bus45" type="bus_bus" depart="199.35" departLane="best" from="996059494#0" to="28801511#1"/>
    <trip id="bus46" type="bus_bus" depart="203.78" departLane="best" departSpeed="max" from="-23017285" to="175834151#0"/>
    <trip id="bus47" type="bus_bus" depart="208.21" departLane="best" from="175834155#5" to="807823961#1"/>
    <trip id="bus48" type="bus_bus" depart="212.64" departLane="best" from="-6271239#2" to="1012329052"/>
    <trip id="bus49" type="bus_bus" depart="217.07" departLane="best" from="19725490#8" to="492547870#2"/>
    <trip id="bus50" type="bus_bus" depart="221.50" departLane="best" departSpeed="max" from="70848536#0" to="6227790#9"/>
    <trip id="bus51" type="bus_bus" depart="225.93" departLane="best" from="-1089560861#1" to="287958495#1"/>
    <trip id="bus52" type="bus_bus" depart="230.36" departLane="best" from="254622402#3" to="46097629"/>
    <trip id="bus53" type="bus_bus" depart="234.79" departLane="best" from="492547872#4" to="226968119#9"/>
    <trip id="bus54" type="bus_bus" depart="239.22" departLane="best" from="51567738-AddedOffRampEdge" to="226958391#1"/>
    <trip id="bus55" type="bus_bus" depart="243.65" departLane="best" from="-1004155558" to="-127729926#1"/>
    <trip id="bus56" type="bus_bus" depart="248.08" departLane="best" from="-1226175100" to="-733027151#1"/>
    <trip id="bus57" type="bus_bus" depart="252.51" departLane="best" from="-6272461#3" to="567506060#0"/>
    <trip id="bus59" type="bus_bus" depart="261.37" departLane="best" from="-6272461#2" to="7982500#3"/>
    <trip id="bus61" type="bus_bus" depart="270.23" departLane="best" from="5133234" to="24733239#4"/>
    <trip id="bus62" type="bus_bus" depart="274.66" departLane="best" from="18677858#1" to="229746990"/>
    <trip id="bus63" type="bus_bus" depart="279.09" departLane="best" from="16776273#1" to="-6234788#2"/>
    <trip id="bus64" type="bus_bus" depart="283.52" departLane="best" from="5151738#0" to="1226175099#0"/>
    <trip id="bus65" type="bus_bus" depart="287.95" departLane="best" from="1016426336#2" to="28850118"/>
    <trip id="bus66" type="bus_bus" depart="292.38" departLane="best" from="175718550#4" to="226863629"/>
    <trip id="bus67" type="bus_bus" depart="296.81" departLane="best" departSpeed="max" from="-235428364" to="-657272931"/>
    <trip id="bus68" type="bus_bus" depart="301.24" departLane="best" from="13858883#0" to="241882661#1"/>
    <trip id="bus69" type="bus_bus" depart="305.67" departLane="best" from="-6234788#3" to="657272874#0"/>
    <trip id="bus70" type="bus_bus" depart="310.10" departLane="best" from="-6234788#1" to="698562579"/>
    <trip id="bus71" type="bus_bus" depart="314.53" departLane="best" from="617979145#4" to="176214937"/>
    <trip id="bus72" type="bus_bus" depart="318.96" departLane="best" from="-657272874#0" to="292074965#5"/>
    <trip id="bus73" type="bus_bus" depart="323.39" departLane="best" from="-552895818#0" to="-279381243#6"/>
    <trip id="bus74" type="bus_bus" depart="327.82" departLane="best" from="-760603093#0" to="235428364"/>
    <trip id="bus75" type="bus_bus" depart="332.25" departLane="best" from="181418887#2" to="517156293"/>
    <trip id="bus76" type="bus_bus" depart="336.68" departLane="best" from="226968119#1" to="175782570"/>
    <trip id="bus77" type="bus_bus" depart="341.11" departLane="best" from="16776376#0" to="19526831#3"/>
    <trip id="bus78" type="bus_bus" depart="345.54" departLane="best" from="-362040635#1" to="292074973"/>
    <trip id="bus79" type="bus_bus" depart="349.97" departLane="best" from="943027532#2" to="226863633#0"/>
    <trip id="bus80" type="bus_bus" depart="354.41" departLane="best" from="165370882#3" to="-138943452#1"/>
    <trip id="bus81" type="bus_bus" depart="358.84" departLane="best" from="617979145#8" to="-954176189#0"/>
    <trip id="bus82" type="bus_bus" depart="363.27" departLane="best" from="-46041120#1" to="181002036#2"/>
    <trip id="bus84" type="bus_bus" depart="372.13" departLane="best" from="-7973120#6" to="731835163#2"/>
    <trip id="bus85" type="bus_bus" depart="376.56" departLane="best" from="175718553#3" to="-6170203"/>
    <trip id="bus86" type="bus_bus" depart="380.99" departLane="best" from="226968119#16" to="-16182736#0"/>
    <trip id="bus87" type="bus_bus" depart="385.42" departLane="best" from="996059494#1" to="567508398"/>
    <trip id="bus88" type="bus_bus" depart="389.85" departLane="best" from="863277517#6" to="732157307#4"/>
    <trip id="bus89" type="bus_bus" depart="394.28" departLane="best" from="607010196" to="355365983#2"/>
    <trip id="bus91" type="bus_bus" depart="403.14" departLane="best" from="157479047#1" to="943027533#1"/>
    <trip id="bus93" type="bus_bus" depart="412.00" departLane="best" from="812948877" to="966590152#1"/>
    <trip id="bus94" type="bus_bus" depart="416.43" departLane="best" from="226986361#0" to="355143063#2"/>
    <trip id="bus95" type="bus_bus" depart="420.86" departLane="best" from="18677754#0" to="-1149399001#1"/>
    <trip id="bus96" type="bus_bus" depart="425.29" departLane="best" from="863277517#6" to="236570788#1"/>
    <trip id="bus97" type="bus_bus" depart="429.72" departLane="best" from="226958382#2" to="46041125#13"/>
    <trip id="bus98" type="bus_bus" depart="434.15" departLane="best" from="17065584#0" to="236571102#1"/>
    <trip id="bus99" type="bus_bus" depart="438.58" departLane="best" from="19725510#2" to="6168350#0"/>
    <trip id="bus100" type="bus_bus" depart="443.01" departLane="best" from="30303388#10" to="180870216#1"/>
    <trip id="bus101" type="bus_bus" depart="447.44" departLane="best" departSpeed="max" from="-207320725" to="5151738#4"/>
    <trip id="bus102" type="bus_bus" depart="451.87" departLane="best" from="24733230#3" to="292296419#0"/>
    <trip id="bus103" type="bus_bus" depart="456.30" departLane="best" from="6272461#4" to="241882662"/>
    <trip id="bus104" type="bus_bus" depart="460.73" departLane="best" from="657272926#3" to="-862844375#1"/>
    <trip id="bus107" type="bus_bus" depart="474.02" departLane="best" from="-657272874#1" to="16763344#1"/>
    <trip id="bus108" type="bus_bus" depart="478.45" departLane="best" departSpeed="max" from="30021479" to="116934432#5"/>
    <trip id="bus109" type="bus_bus" depart="482.88" departLane="best" from="118566443#1" to="46041125#7"/>
    <trip id="bus110" type="bus_bus" depart="487.31" departLane="best" from="19573436#1" to="-18677910#1"/>
    <trip id="bus113" type="bus_bus" depart="500.60" departLane="best" from="-637107883#1" to="626604713#2"/>
    <trip id="bus114" type="bus_bus" depart="505.03" departLane="best" from="156641025#3" to="-345760480#0"/>
    <trip id="bus115" type="bus_bus" depart="509.46" departLane="best" from="567506060#3" to="348787197"/>
    <trip id="bus116" type="bus_bus" depart="513.89" departLane="best" from="259118687#6" to="-954176189#1"/>
    <trip id="bus117" type="bus_bus" depart="518.32" departLane="best" from="29015188" to="-1054520443#0"/>
    <trip id="bus118" type="bus_bus" depart="522.75" departLane="best" from="560686852#0" to="116934432#1"/>
    <trip id="bus119" type="bus_bus" depart="527.18" departLane="best" from="292074965#12" to="7973120#0"/>
    <trip id="bus120" type="bus_bus" depart="531.61" departLane="best" from="-24733239#2" to="138943450#2"/>
    <trip id="bus121" type="bus_bus" depart="536.04" departLane="best" from="1012329053" to="254622402#0"/>
    <trip id="bus122" type="bus_bus" depart="540.47" departLane="best" departSpeed="max" from="35397326" to="591701694#0"/>
    <trip id="bus123" type="bus_bus" depart="544.90" departLane="best" from="287240438" to="-1012329053"/>
    <trip id="bus124" type="bus_bus" depart="549.33" departLane="best" from="19570360#1" to="698562579"/>
    <trip id="bus125" type="bus_bus" depart="553.76" departLane="best" from="607010189" to="-225014676#1"/>
    <trip id="bus126" type="bus_bus" depart="558.19" departLane="best" from="16776376#0" to="1017601830#0"/>
    <trip id="bus127" type="bus_bus" depart="562.62" departLane="best" from="-1054520440#0" to="5151621#0"/>
    <trip id="bus128" type="bus_bus" depart="567.05" departLane="best" from="445548080" to="23017285"/>
    <trip id="bus129" type="bus_bus" depart="571.48" departLane="best" from="17065557#0" to="-1089800463#0"/>
    <trip id="bus130" type="bus_bus" depart="575.91" departLane="best" from="693933448" to="-229716163#0"/>
    <trip id="bus131" type="bus_bus" depart="580.34" departLane="best" from="567506062#2" to="236570790#3"/>
    <trip id="bus132" type="bus_bus" depart="584.77" departLane="best" from="1146137151#1" to="674870447#0"/>
    <trip id="bus133" type="bus_bus" depart="589.20" departLane="best" departSpeed="max" from="548302276" to="6170178#3"/>
    <trip id="bus135" type="bus_bus" depart="598.06" departLane="best" from="-7973120#6" to="-226968119#3"/>
    <trip id="bus138" type="bus_bus" depart="611.35" departLane="best" from="18677754#0" to="734200314#1"/>
    <trip id="bus139" type="bus_bus" depart="615.78" departLane="best" from="6227790#4" to="882981170#6"/>
    <trip id="bus140" type="bus_bus" depart="620.21" departLane="best" from="552895422#1" to="6272461#1"/>
    <trip id="bus142" type="bus_bus" depart="629.07" departLane="best" from="551139806" to="617979145#4"/>
    <trip id="bus143" type="bus_bus" depart="633.50" departLane="best" from="552895422#1" to="1013320831#1"/>
    <trip id="bus144" type="bus_bus" depart="637.93" departLane="best" from="537691925#0" to="-227213447#1"/>
    <trip id="bus145" type="bus_bus" depart="642.36" departLane="best" from="-6234788#1" to="6170121#1"/>
    <trip id="bus146" type="bus_bus" depart="646.79" departLane="best" departSpeed="max" from="-6170121#1" to="554342497#1"/>
    <trip id="bus147" type="bus_bus" depart="651.22" departLane="best" from="180870212#4" to="1198141608#0"/>
    <trip id="bus148" type="bus_bus" depart="655.65" departLane="best" from="1239668581" to="-552894429#3"/>
    <trip id="bus149" type="bus_bus" depart="660.08" departLane="best" from="1232718635" to="617979145#5"/>
    <trip id="bus150" type="bus_bus" depart="664.51" departLane="best" from="863277517#2" to="1017601836#0"/>
    <trip id="bus151" type="bus_bus" depart="668.94" departLane="best" from="28801553#6" to="16763485#8"/>
    <trip id="bus152" type="bus_bus" depart="673.37" departLane="best" from="937743707#1" to="-226968119#3"/>
    <trip id="bus153" type="bus_bus" depart="677.80" departLane="best" from="-7973120#2" to="138943450#2"/>
    <trip id="bus154" type="bus_bus" depart="682.23" departLane="best" from="863277517#9" to="492547870#2"/>
    <trip id="bus155" type="bus_bus" depart="686.66" departLane="best" from="-862844374#1" to="1013320828#1"/>
    <trip id="bus156" type="bus_bus" depart="691.09" departLane="best" departSpeed="max" from="-229746975#3" to="175834151#0"/>
    <trip id="bus157" type="bus_bus" depart="695.52" departLane="best" from="362040635#0" to="236570788#1"/>
    <trip id="bus158" type="bus_bus" depart="699.95" departLane="best" from="251819525#2-AddedOffRampEdge" to="225014655#5"/>
    <trip id="bus159" type="bus_bus" depart="704.38" departLane="best" from="157483446#0" to="236570328#0"/>
    <trip id="bus160" type="bus_bus" depart="708.81" departLane="best" from="8161736#3" to="351002182#0"/>
    <trip id="bus161" type="bus_bus" depart="713.24" departLane="best" from="1013012547" to="732157307#1"/>
    <trip id="bus162" type="bus_bus" depart="717.67" departLane="best" from="226958380#5" to="355143063#2"/>
    <trip id="bus163" type="bus_bus" depart="722.10" departLane="best" from="147479159#0" to="-175782570"/>
    <trip id="bus164" type="bus_bus" depart="726.53" departLane="best" from="292074965#14" to="138943443#0"/>
    <trip id="bus165" type="bus_bus" depart="730.96" departLane="best" from="116934432#5" to="607010196"/>
    <trip id="bus166" type="bus_bus" depart="735.39" departLane="best" from="-355365983#0" to="116934432#6"/>
    <trip id="bus167" type="bus_bus" depart="739.82" departLane="best" from="1149399000#1" to="16776376#0"/>
    <trip id="bus168" type="bus_bus" depart="744.25" departLane="best" from="24590383#0" to="173688387#2"/>
    <trip id="bus169" type="bus_bus" depart="748.68" departLane="best" from="693908551" to="26299577#1"/>
    <trip id="bus170" type="bus_bus" depart="753.11" departLane="best" from="1091144613#0" to="229746975#3"/>
    <trip id="bus171" type="bus_bus" depart="757.54" departLane="best" from="-1004155557" to="1091144613#0"/>
    <trip id="bus172" type="bus_bus" depart="761.97" departLane="best" from="17065584#1" to="236570788#2"/>
    <trip id="bus173" type="bus_bus" depart="766.40" departLane="best" from="29015339#1" to="187844379#0"/>
    <trip id="bus174" type="bus_bus" depart="770.83" departLane="best" from="175718553#1" to="-6271239#1"/>
    <trip id="bus176" type="bus_bus" depart="779.69" departLane="best" departSpeed="max" from="548302276" to="362040635#0"/>
    <trip id="bus177" type="bus_bus" depart="784.12" departLane="best" from="-225014655#2" to="226855479#0"/>
    <trip id="bus178" type="bus_bus" depart="788.55" departLane="best" from="28593304-AddedOffRampEdge" to="138943449#0"/>
    <trip id="bus179" type="bus_bus" depart="792.98" departLane="best" from="560686856#0" to="46041125#6"/>
    <trip id="bus180" type="bus_bus" depart="797.41" departLane="best" departSpeed="max" from="30021479" to="-657272931"/>
    <trip id="bus181" type="bus_bus" depart="801.84" departLane="best" from="-492547872#7" to="1232718639"/>
    <trip id="bus182" type="bus_bus" depart="806.27" departLane="best" from="-760603093#0" to="19712631#2"/>
    <trip id="bus183" type="bus_bus" depart="810.70" departLane="best" from="607753795" to="-181418879#0"/>
    <trip id="bus184" type="bus_bus" depart="815.13" departLane="best" from="16763485#5" to="279381264#2"/>
    <trip id="bus185" type="bus_bus" depart="819.56" departLane="best" from="-19712631#3" to="-8161736#3"/>
    <trip id="bus186" type="bus_bus" depart="823.99" departLane="best" from="46041125#6" to="5151459"/>
    <trip id="bus187" type="bus_bus" depart="828.42" departLane="best" from="-229746975#0" to="175718552#1"/>
    <trip id="bus188" type="bus_bus" depart="832.85" departLane="best" departSpeed="max" from="-355143063#2" to="812948877"/>
    <trip id="bus190" type="bus_bus" depart="841.71" departLane="best" from="-7973120#5" to="607010196"/>
    <trip id="bus191" type="bus_bus" depart="846.14" departLane="best" from="292074965#5" to="-954176189#2"/>
    <trip id="bus192" type="bus_bus" depart="850.57" departLane="best" from="24733230#3" to="7982502"/>
    <trip id="bus193" type="bus_bus" depart="855.00" departLane="best" from="657272927#1" to="259269376#1"/>
    <trip id="bus194" type="bus_bus" depart="859.43" departLane="best" from="-355143063#1" to="216613208#0"/>
    <trip id="bus195" type="bus_bus" depart="863.86" departLane="best" from="561980617#1" to="229746975#3"/>
    <trip id="bus197" type="bus_bus" depart="872.72" departLane="best" from="18677816#0" to="-996059494#1"/>
    <trip id="bus198" type="bus_bus" depart="877.15" departLane="best" from="5133234" to="226863633#5"/>
    <trip id="bus199" type="bus_bus" depart="881.58" departLane="best" from="279381264#0" to="1017601814#2"/>
    <trip id="bus200" type="bus_bus" depart="886.01" departLane="best" from="-19712631#4" to="1089800463#0"/>
    <trip id="bus201" type="bus_bus" depart="890.44" departLane="best" from="226958380#8" to="-28850117#0"/>
    <trip id="bus202" type="bus_bus" depart="894.87" departLane="best" from="6234788#5" to="345760480#2"/>
    <trip id="bus203" type="bus_bus" depart="899.30" departLane="best" from="350680056#0" to="-17065584#0"/>
    <trip id="bus205" type="bus_bus" depart="908.16" departLane="best" from="16764114" to="6228005#1"/>
    <trip id="bus207" type="bus_bus" depart="917.02" departLane="best" from="236571102#1" to="345760484#2"/>
    <trip id="bus208" type="bus_bus" depart="921.45" departLane="best" from="6170178#4" to="492547872#5"/>
    <trip id="bus209" type="bus_bus" depart="925.88" departLane="best" from="157479048#1" to="-1054520441#0"/>
    <trip id="bus210" type="bus_bus" depart="930.31" departLane="best" from="138943452#3" to="-46041173#0"/>
    <trip id="bus211" type="bus_bus" depart="934.74" departLane="best" from="6168671" to="807823961#0"/>
    <trip id="bus213" type="bus_bus" depart="943.60" departLane="best" from="226958392#1" to="251819525#2"/>
    <trip id="bus214" type="bus_bus" depart="948.03" departLane="best" from="173688387#2" to="13858884#1"/>
    <trip id="bus217" type="bus_bus" depart="961.32" departLane="best" departSpeed="max" from="181418879#0" to="24733239#2"/>
    <trip id="bus218" type="bus_bus" depart="965.75" departLane="best" from="279381243#5" to="-127729926#2"/>
    <trip id="bus219" type="bus_bus" depart="970.18" departLane="best" from="16369712#0" to="230979882#3"/>
    <trip id="bus220" type="bus_bus" depart="974.61" departLane="best" from="24733239#5" to="966590150"/>
    <trip id="bus221" type="bus_bus" depart="979.04" departLane="best" from="-16370002#0" to="16182736#0"/>
    <trip id="bus222" type="bus_bus" depart="983.47" departLane="best" from="552894429#5" to="13858884#0"/>
    <trip id="bus223" type="bus_bus" depart="987.90" departLane="best" from="-492547872#2" to="16182736#0"/>
    <trip id="bus224" type="bus_bus" depart="992.33" departLane="best" from="46041125#8" to="567506060#1"/>
    <trip id="bus225" type="bus_bus" depart="996.76" departLane="best" from="7973123#0" to="-19573436#2"/>
    <trip id="bus226" type="bus_bus" depart="1001.19" departLane="best" from="-1226175100" to="-226968119#9"/>
    <trip id="bus227" type="bus_bus" depart="1005.62" departLane="best" from="996059494#2" to="138943463#2"/>
    <trip id="bus229" type="bus_bus" depart="1014.48" departLane="best" from="29015104#1" to="46041231"/>
    <trip id="bus231" type="bus_bus" depart="1023.34" departLane="best" from="-241882661#1" to="292074965#6"/>
    <trip id="bus232" type="bus_bus" depart="1027.77" departLane="best" from="23017377#0" to="-6272461#6"/>
    <trip id="bus233" type="bus_bus" depart="1032.20" departLane="best" from="-348787191#0" to="492547872#7"/>
    <trip id="bus234" type="bus_bus" depart="1036.63" departLane="best" departSpeed="max" from="-345751062#1" to="259118687#11"/>
    <trip id="bus235" type="bus_bus" depart="1041.06" departLane="best" from="46041125#14" to="-230979882#7"/>
    <trip id="bus237" type="bus_bus" depart="1049.92" departLane="best" departSpeed="max" from="-229746975#3" to="1239668581"/>
    <trip id="bus238" type="bus_bus" depart="1054.35" departLane="best" from="-1149399002#2" to="30303388#1"/>
    <trip id="bus239" type="bus_bus" depart="1058.79" departLane="best" from="8161736#1" to="16763485#1"/>
    <trip id="bus240" type="bus_bus" depart="1063.22" departLane="best" from="35397310#0" to="-18677910#0"/>
    <trip id="bus241" type="bus_bus" depart="1067.65" departLane="best" departSpeed="max" from="345760480#0" to="279381247#1"/>
    <trip id="bus242" type="bus_bus" depart="1072.08" departLane="best" from="226968119#8" to="5151621#2"/>
    <trip id="bus243" type="bus_bus" depart="1076.51" departLane="best" from="6168347" to="24733239#5"/>
    <trip id="bus244" type="bus_bus" depart="1080.94" departLane="best" departSpeed="max" from="-235428364" to="943027532#1"/>
    <trip id="bus245" type="bus_bus" depart="1085.37" departLane="best" from="517156294" to="138943462#3"/>
    <trip id="bus246" type="bus_bus" depart="1089.80" departLane="best" from="17065557#2" to="-157482093#2"/>
    <trip id="bus247" type="bus_bus" depart="1094.23" departLane="best" departSpeed="max" from="20096593#0" to="138943453#2"/>
    <trip id="bus248" type="bus_bus" depart="1098.66" departLane="best" from="607753795" to="560686857#1"/>
    <trip id="bus249" type="bus_bus" depart="1103.09" departLane="best" from="-227213450" to="180870216#1"/>
    <trip id="bus250" type="bus_bus" depart="1107.52" departLane="best" from="-287958495#0" to="560686868"/>
    <trip id="bus251" type="bus_bus" depart="1111.95" departLane="best" from="181418881" to="-175834154"/>
    <trip id="bus252" type="bus_bus" depart="1116.38" departLane="best" from="381987794#0" to="863277517#10"/>
    <trip id="bus253" type="bus_bus" depart="1120.81" departLane="best" from="1004155560" to="552894899#1"/>
    <trip id="bus254" type="bus_bus" depart="1125.24" departLane="best" from="226958380#4" to="19725510#1"/>
    <trip id="bus255" type="bus_bus" depart="1129.67" departLane="best" from="173688387#2" to="35971363"/>
    <trip id="bus256" type="bus_bus" depart="1134.10" departLane="best" from="1004155556#0" to="607754739"/>
    <trip id="bus257" type="bus_bus" depart="1138.53" departLane="best" from="561980617#1" to="-19712631#4"/>
    <trip id="bus258" type="bus_bus" depart="1142.96" departLane="best" from="643485454#0" to="-8161736#2"/>
    <trip id="bus259" type="bus_bus" depart="1147.39" departLane="best" from="181409049#0" to="259118687#9"/>
    <trip id="bus260" type="bus_bus" depart="1151.82" departLane="best" from="6168350#0" to="-492547872#7"/>
    <trip id="bus261" type="bus_bus" depart="1156.25" departLane="best" from="552894429#5" to="55065902#0"/>
    <trip id="bus262" type="bus_bus" depart="1160.68" departLane="best" from="348787193#2" to="1017601817#3"/>
    <trip id="bus263" type="bus_bus" depart="1165.11" departLane="best" from="-116934432#0" to="7982500#5"/>
    <trip id="bus264" type="bus_bus" depart="1169.54" departLane="best" departSpeed="max" from="-225014655#5" to="355143063#2"/>
    <trip id="bus265" type="bus_bus" depart="1173.97" departLane="best" departSpeed="max" from="345760480#0" to="28801553#6"/>
    <trip id="bus266" type="bus_bus" depart="1178.40" departLane="best" from="19573436#4" to="537691925#1"/>
    <trip id="bus267" type="bus_bus" depart="1182.83" departLane="best" from="-226863630#1" to="657272874#3"/>
    <trip id="bus268" type="bus_bus" depart="1187.26" departLane="best" departSpeed="max" from="345760480#0" to="-1214548311#0"/>
    <trip id="bus269" type="bus_bus" depart="1191.69" departLane="best" from="236570790#2" to="-19573436#6"/>
    <trip id="bus270" type="bus_bus" depart="1196.12" departLane="best" from="46041125#10" to="-138943443#1"/>
    <trip id="bus271" type="bus_bus" depart="1200.55" departLane="best" from="235964000" to="966590150"/>
    <trip id="bus272" type="bus_bus" depart="1204.98" departLane="best" from="7973122#2" to="-24590379"/>
    <trip id="bus273" type="bus_bus" depart="1209.41" departLane="best" from="-46041173#1" to="-241882661#1"/>
    <trip id="bus274" type="bus_bus" depart="1213.84" departLane="best" from="226958380#0" to="482038394#1"/>
    <trip id="bus275" type="bus_bus" depart="1218.27" departLane="best" from="19190927#0" to="355365984#9"/>
    <trip id="bus276" type="bus_bus" depart="1222.70" departLane="best" from="882981170#7" to="226958380#5"/>
    <trip id="bus277" type="bus_bus" depart="1227.13" departLane="best" from="1017601814#2" to="-226968119#1"/>
    <trip id="bus279" type="bus_bus" depart="1235.99" departLane="best" from="-355365984#0" to="116934432#6"/>
    <trip id="bus280" type="bus_bus" depart="1240.42" departLane="best" from="226863633#0" to="1017601814#1"/>
    <trip id="bus281" type="bus_bus" depart="1244.85" departLane="best" from="882981170#3" to="23017285"/>