<?xml version="1.0" encoding="UTF-8"?>

<!-- generated on 2024-04-03 19:45:08.765842 by osmWebWizard.py v1_19_0+0000-baa66a0f364
<configuration>
    <net-file value="C:\Users\atp\Sumo\2024-04-03-19-44-07\osm.net.xml.gz"/>
    <output-trip-file value="C:\Users\atp\Sumo\2024-04-03-19-44-07\osm.truck.trips.xml"/>
    <route-file value="C:\Users\atp\Sumo\2024-04-03-19-44-07\osm.truck.rou.xml"/>
    <prefix value="truck"/>
    <trip-attributes value="departLane=&quot;best&quot;"/>
    <fringe-start-attributes value="departSpeed=&quot;max&quot;"/>
    <vehicle-class value="truck"/>
    <fringe-factor value="5"/>
    <vclass value="truck"/>
    <via-edge-types value="highway.motorway,highway.motorway_link,highway.trunk_link,highway.primary_link,highway.secondary_link,highway.tertiary_link"/>
    <min-distance value="600.0"/>
    <min-distance.fringe value="10.0"/>
    <remove-loops value="True"/>
    <validate value="True"/>
    <insertion-density value="7.0"/>
</configuration>
-->

<!-- generated on 2024-04-03 19:45:08 by Eclipse SUMO duarouter Version 1.19.0
<configuration xmlns:xsi="http://www.w3.org/2001/XMLSchema-instance" xsi:noNamespaceSchemaLocation="http://sumo.dlr.de/xsd/duarouterConfiguration.xsd">

    <input>
        <net-file value="C:\Users\atp\Sumo\2024-04-03-19-44-07\osm.net.xml.gz"/>
        <route-files value="C:\Users\atp\Sumo\2024-04-03-19-44-07\osm.truck.trips.xml"/>
    </input>

    <output>
        <output-file value="C:\Users\atp\Sumo\2024-04-03-19-44-07\osm.truck.trips.xml.tmp"/>
        <alternatives-output value="NUL"/>
        <write-trips value="true"/>
    </output>

    <processing>
        <remove-loops value="true"/>
    </processing>

    <time>
        <begin value="0.0"/>
        <end value="3600.0"/>
    </time>

    <report>
        <no-warnings value="true"/>
        <ignore-errors value="true"/>
        <no-step-log value="true"/>
    </report>

</configuration>
-->

<routes xmlns:xsi="http://www.w3.org/2001/XMLSchema-instance" xsi:noNamespaceSchemaLocation="http://sumo.dlr.de/xsd/routes_file.xsd">
    <vType id="truck_truck" vClass="truck"/>
    <trip id="truck0" type="truck_truck" depart="0.00" departLane="best" from="28801511#0" to="1232718639"/>
    <trip id="truck1" type="truck_truck" depart="2.55" departLane="best" from="1004155560" to="6272461#5"/>
    <trip id="truck2" type="truck_truck" depart="5.10" departLane="best" from="423202469#0" to="292074973"/>
    <trip id="truck3" type="truck_truck" depart="7.65" departLane="best" from="657272926#5" to="19607882"/>
    <trip id="truck4" type="truck_truck" depart="10.20" departLane="best" from="16764285#3" to="13858884#1"/>
    <trip id="truck6" type="truck_truck" depart="15.30" departLane="best" departSpeed="max" from="28850117#0" to="227213450"/>
    <trip id="truck7" type="truck_truck" depart="17.85" departLane="best" from="589705895#0" to="241882661#0"/>
    <trip id="truck8" type="truck_truck" depart="20.40" departLane="best" from="552894900#0" to="-1054520441#0"/>
    <trip id="truck10" type="truck_truck" depart="25.50" departLane="best" from="8161736#1" to="138943448#3"/>
    <trip id="truck12" type="truck_truck" depart="30.59" departLane="best" from="226863633#0" to="882981170#1"/>
    <trip id="truck13" type="truck_truck" depart="33.14" departLane="best" from="156641038#7" to="229747003"/>
    <trip id="truck14" type="truck_truck" depart="35.69" departLane="best" departSpeed="max" from="561168709" to="292074965#11"/>
    <trip id="truck15" type="truck_truck" depart="38.24" departLane="best" from="617979145#6" to="236569080#1"/>
    <trip id="truck16" type="truck_truck" depart="40.79" departLane="best" from="348787197" to="-138943460#4"/>
    <trip id="truck18" type="truck_truck" depart="45.89" departLane="best" from="226968119#16" to="1017601830#0"/>
    <trip id="truck19" type="truck_truck" depart="48.44" departLane="best" from="28593268#1" to="156641038#9"/>
    <trip id="truck20" type="truck_truck" depart="50.99" departLane="best" from="148887002#1" to="606166183"/>
    <trip id="truck21" type="truck_truck" depart="53.54" departLane="best" from="-958856730#5" to="782267664"/>
    <trip id="truck22" type="truck_truck" depart="56.09" departLane="best" departSpeed="max" from="28817348" to="-226968119#7"/>
    <trip id="truck23" type="truck_truck" depart="58.64" departLane="best" departSpeed="max" from="-345751062#1" to="35971363"/>
    <trip id="truck24" type="truck_truck" depart="61.19" departLane="best" from="-30303388#5" to="16181909"/>
    <trip id="truck25" type="truck_truck" depart="63.74" departLane="best" from="-958856730#4" to="-28765644"/>
    <trip id="truck26" type="truck_truck" depart="66.29" departLane="best" from="226983423" to="30303388#7"/>
    <trip id="truck27" type="truck_truck" depart="68.84" departLane="best" from="605943740" to="5151676#1"/>
    <trip id="truck28" type="truck_truck" depart="71.39" departLane="best" from="6170203" to="13858884#6"/>
    <trip id="truck29" type="truck_truck" depart="73.94" departLane="best" from="-543786575#0" to="7973123#0"/>
    <trip id="truck30" type="truck_truck" depart="76.49" departLane="best" from="-6271239#1" to="236570788#1"/>
    <trip id="truck32" type="truck_truck" depart="81.59" departLane="best" from="735429055" to="18677754#0"/>
    <trip id="truck33" type="truck_truck" depart="84.14" departLane="best" from="954176189#3" to="-8161736#3"/>
    <trip id="truck34" type="truck_truck" depart="86.68" departLane="best" from="-227496097#1" to="1004155556#0"/>
    <trip id="truck35" type="truck_truck" depart="89.23" departLane="best" from="236570790#4" to="657272932#2"/>
    <trip id="truck36" type="truck_truck" depart="91.78" departLane="best" from="16369712#11" to="6271239#2"/>
    <trip id="truck38" type="truck_truck" depart="96.88" departLane="best" from="225014676#1" to="-138943460#7"/>
    <trip id="truck39" type="truck_truck" depart="99.43" departLane="best" from="-229746975#0" to="-279381243#6"/>
    <trip id="truck40" type="truck_truck" depart="101.98" departLane="best" from="543786575#0" to="172620773#1"/>
    <trip id="truck41" type="truck_truck" depart="104.53" departLane="best" from="175718553#3" to="16182736#1"/>
    <trip id="truck42" type="truck_truck" depart="107.08" departLane="best" from="1016426336#0" to="226958382#3"/>
    <trip id="truck43" type="truck_truck" depart="109.63" departLane="best" from="882981167#2" to="6170178#3"/>
    <trip id="truck44" type="truck_truck" depart="112.18" departLane="best" from="116934432#5" to="355365984#0"/>
    <trip id="truck45" type="truck_truck" depart="114.73" departLane="best" from="-958856730#4" to="287958495#1"/>
    <trip id="truck46" type="truck_truck" depart="117.28" departLane="best" departSpeed="max" from="-229746975#3" to="175782571"/>
    <trip id="truck47" type="truck_truck" depart="119.83" departLane="best" from="175834145#3" to="812948871"/>
    <trip id="truck48" type="truck_truck" depart="122.38" departLane="best" from="19725476" to="-46041120#4"/>
    <trip id="truck49" type="truck_truck" depart="124.93" departLane="best" departSpeed="max" from="70848536#0" to="6227790#8"/>
    <trip id="truck50" type="truck_truck" depart="127.48" departLane="best" from="492547872#5" to="226968119#7"/>
    <trip id="truck51" type="truck_truck" depart="130.03" departLane="best" from="5169202#0" to="226958385#1"/>
    <trip id="truck52" type="truck_truck" depart="132.58" departLane="best" from="-6272461#1" to="567506060#1"/>
    <trip id="truck54" type="truck_truck" depart="137.68" departLane="best" from="-6272461#0" to="7982500#6"/>
    <trip id="truck55" type="truck_truck" depart="140.23" departLane="best" from="-216613208#1" to="19725510#3"/>
    <trip id="truck56" type="truck_truck" depart="142.78" departLane="best" from="-18677910#1" to="482038394#0"/>
    <trip id="truck57" type="truck_truck" depart="145.32" departLane="best" from="5133376#0" to="-24733230#5"/>
    <trip id="truck58" type="truck_truck" depart="147.87" departLane="best" from="181418880#0" to="229746975#3"/>
    <trip id="truck59" type="truck_truck" depart="150.42" departLane="best" from="16764285#5" to="6228005#1"/>
    <trip id="truck60" type="truck_truck" depart="152.97" departLane="best" from="492547872#0" to="1222109253#1"/>
    <trip id="truck61" type="truck_truck" depart="155.52" departLane="best" from="1016426336#2" to="28817347#1"/>
    <trip id="truck62" type="truck_truck" depart="158.07" departLane="best" from="17067083#1" to="-226863628#2"/>
    <trip id="truck63" type="truck_truck" depart="160.62" departLane="best" from="230979882#6" to="637107883#1"/>
    <trip id="truck64" type="truck_truck" depart="163.17" departLane="best" from="643485456#1" to="238993350#2"/>
    <trip id="truck65" type="truck_truck" depart="165.72" departLane="best" from="-6228005#2" to="6272461#0"/>
    <trip id="truck66" type="truck_truck" depart="168.27" departLane="best" from="6170203" to="698562579"/>
    <trip id="truck67" type="truck_truck" depart="170.82" departLane="best" from="617979145#2" to="-175765705"/>
    <trip id="truck68" type="truck_truck" depart="173.37" departLane="best" from="-6272461#0" to="292074965#13"/>
    <trip id="truck69" type="truck_truck" depart="175.92" departLane="best" from="-552894429#0" to="24733239#5"/>
    <trip id="truck70" type="truck_truck" depart="178.47" departLane="best" from="-760603095" to="231086603#5"/>
    <trip id="truck71" type="truck_truck" depart="181.02" departLane="best" departSpeed="max" from="181418879#0" to="517156294"/>
    <trip id="truck72" type="truck_truck" depart="183.57" departLane="best" from="552894517#0" to="5151738#4"/>
    <trip id="truck73" type="truck_truck" depart="186.12" departLane="best" from="226863633#0" to="-175718553#3"/>
    <trip id="truck75" type="truck_truck" depart="191.22" departLane="best" departSpeed="max" from="364097733" to="292074965#7"/>
    <trip id="truck76" type="truck_truck" depart="193.77" departLane="best" from="943027532#3" to="226863629"/>
    <trip id="truck77" type="truck_truck" depart="196.32" departLane="best" from="16369712#6" to="-138943449#5"/>
    <trip id="truck78" type="truck_truck" depart="198.87" departLane="best" from="617979145#6" to="862844375#1"/>
    <trip id="truck79" type="truck_truck" depart="201.41" departLane="best" from="-37932314#0" to="180870216#1"/>
    <trip id="truck80" type="truck_truck" depart="203.96" departLane="best" from="16764285#3" to="1017601830#2"/>
    <trip id="truck81" type="truck_truck" depart="206.51" departLane="best" from="-760603093#0" to="732157307#0"/>
    <trip id="truck82" type="truck_truck" depart="209.06" departLane="best" from="-460727511#1" to="16120501#0"/>
    <trip id="truck83" type="truck_truck" depart="211.61" departLane="best" from="996059494#1" to="567508398"/>
    <trip id="truck84" type="truck_truck" depart="214.16" departLane="best" from="863277517#8" to="733027150"/>
    <trip id="truck85" type="truck_truck" depart="216.71" departLane="best" from="607010195-AddedOnRampEdge" to="345760484#2"/>
    <trip id="truck86" type="truck_truck" depart="219.26" departLane="best" from="187844372#2" to="6228005#5"/>
    <trip id="truck88" type="truck_truck" depart="224.36" departLane="best" from="156641038#9" to="943027533#2"/>
    <trip id="truck89" type="truck_truck" depart="226.91" departLane="best" from="175834145#5" to="173688387#2"/>
    <trip id="truck90" type="truck_truck" depart="229.46" departLane="best" from="8161736#1" to="966590152#2"/>
    <trip id="truck91" type="truck_truck" depart="232.01" departLane="best" from="226968119#8" to="355365983#0"/>
    <trip id="truck92" type="truck_truck" depart="234.56" departLane="best" departSpeed="max" from="-28850118" to="1149398999"/>
    <trip id="truck93" type="truck_truck" depart="237.11" departLane="best" from="863277517#7" to="236570787"/>
    <trip id="truck94" type="truck_truck" depart="239.66" departLane="best" from="226958380#8" to="46041125#2"/>
    <trip id="truck96" type="truck_truck" depart="244.76" departLane="best" from="19725490#6" to="6168350#0"/>
    <trip id="truck97" type="truck_truck" depart="247.31" departLane="best" from="-29015339#0" to="858183285"/>
    <trip id="truck98" type="truck_truck" depart="249.86" departLane="best" from="-19725473#0" to="492547872#6"/>
    <trip id="truck99" type="truck_truck" depart="252.41" departLane="best" from="24590383#1" to="292074973"/>
    <trip id="truck100" type="truck_truck" depart="254.96" departLane="best" from="-6234788#3" to="236570790#2"/>
    <trip id="truck101" type="truck_truck" depart="257.50" departLane="best" from="17064471#1" to="-8161736#2"/>
    <trip id="truck102" type="truck_truck" depart="260.05" departLane="best" from="24590383#0" to="26610578#1"/>
    <trip id="truck103" type="truck_truck" depart="262.60" departLane="best" from="16763485#8" to="-236570790#3"/>
    <trip id="truck104" type="truck_truck" depart="265.15" departLane="best" from="21304558#0" to="-759536978"/>
    <trip id="truck105" type="truck_truck" depart="267.70" departLane="best" from="-5151618" to="355143063#2"/>
    <trip id="truck107" type="truck_truck" depart="272.80" departLane="best" from="292074965#5" to="1149399002#2"/>
    <trip id="truck108" type="truck_truck" depart="275.35" departLane="best" from="1149519337" to="-46041173#0"/>
    <trip id="truck109" type="truck_truck" depart="277.90" departLane="best" from="996059494#0" to="966590152#3"/>
    <trip id="truck110" type="truck_truck" depart="280.45" departLane="best" from="-19526831#5" to="6228005#4"/>
    <trip id="truck112" type="truck_truck" depart="285.55" departLane="best" from="-6272461#5" to="626604713#0"/>
    <trip id="truck113" type="truck_truck" depart="288.10" departLane="best" from="567506060#3" to="346088575#2"/>
    <trip id="truck114" type="truck_truck" depart="290.65" departLane="best" from="254622402#3" to="-954176189#2"/>
    <trip id="truck115" type="truck_truck" depart="293.20" departLane="best" from="29015061#1" to="-1054520443#0"/>
    <trip id="truck116" type="truck_truck" depart="295.75" departLane="best" from="279381258#3" to="1149399002#1"/>
    <trip id="truck117" type="truck_truck" depart="298.30" departLane="best" from="254622402#3" to="7973120#3"/>
    <trip id="truck118" type="truck_truck" depart="300.85" departLane="best" from="24733230#4" to="-230302495"/>
    <trip id="truck119" type="truck_truck" depart="303.40" departLane="best" from="-227213447#1" to="23017285"/>
    <trip id="truck120" type="truck_truck" depart="305.95" departLane="best" from="996059494#1" to="251819525#2"/>
    <trip id="truck122" type="truck_truck" depart="311.05" departLane="best" from="28592969" to="1004155558"/>
    <trip id="truck123" type="truck_truck" depart="313.60" departLane="best" from="-19526831#3" to="698562579"/>
    <trip id="truck124" type="truck_truck" depart="316.14" departLane="best" from="607010188" to="216613208#1"/>
    <trip id="truck126" type="truck_truck" depart="321.24" departLane="best" from="28593304-AddedOnRampEdge" to="-996059494#1"/>
    <trip id="truck127" type="truck_truck" depart="323.79" departLane="best" from="445548082#1" to="229747002#0"/>
    <trip id="truck128" type="truck_truck" depart="326.34" departLane="best" from="16776273#1" to="-1089560861#2"/>
    <trip id="truck129" type="truck_truck" depart="328.89" departLane="best" from="687468227#1" to="227496097#1"/>
    <trip id="truck130" type="truck_truck" depart="331.44" departLane="best" from="567506062#2" to="236570790#1"/>
    <trip id="truck131" type="truck_truck" depart="333.99" departLane="best" departSpeed="max" from="-285498074" to="-24733230#3"/>
    <trip id="truck132" type="truck_truck" depart="336.54" departLane="best" from="1109996889" to="657272932#2"/>
    <trip id="truck133" type="truck_truck" depart="339.09" departLane="best" departSpeed="max" from="548302276" to="6170178#2"/>
    <trip id="truck135" type="truck_truck" depart="344.19" departLane="best" from="-760603093#0" to="-226863633#5"/>
    <trip id="truck137" type="truck_truck" depart="349.29" departLane="best" from="165370882#2" to="26610578#2"/>
    <trip id="truck138" type="truck_truck" depart="351.84" departLane="best" departSpeed="max" from="-28850118" to="734200314#1"/>
    <trip id="truck139" type="truck_truck" depart="354.39" departLane="best" from="6227790#10" to="882981170#7"/>
    <trip id="truck141" type="truck_truck" depart="359.49" departLane="best" from="1232718637" to="734200314#1"/>
    <trip id="truck142" type="truck_truck" depart="362.04" departLane="best" from="55069412#5" to="617979145#3"/>
    <trip id="truck143" type="truck_truck" depart="364.59" departLane="best" from="-552894901#2" to="-1012329053"/>
    <trip id="truck144" type="truck_truck" depart="367.14" departLane="best" from="6234672" to="6170121#1"/>
    <trip id="truck145" type="truck_truck" depart="369.69" departLane="best" from="589705895#3" to="554342497#1"/>
    <trip id="truck146" type="truck_truck" depart="372.23" departLane="best" from="175834155#7" to="-5151734#0"/>
    <trip id="truck147" type="truck_truck" depart="374.78" departLane="best" departSpeed="max" from="548302276" to="657272876#1"/>
    <trip id="truck148" type="truck_truck" depart="377.33" departLane="best" from="1232718640#1" to="-543786575#0"/>
    <trip id="truck149" type="truck_truck" depart="379.88" departLane="best" from="1226175094" to="617979145#4"/>
    <trip id="truck150" type="truck_truck" depart="382.43" departLane="best" from="863277517#3" to="1017601835#0"/>
    <trip id="truck151" type="truck_truck" depart="384.98" departLane="best" from="28801511#3" to="16763485#11"/>
    <trip id="truck152" type="truck_truck" depart="387.53" departLane="best" from="943027530#0" to="-226968119#15"/>
    <trip id="truck153" type="truck_truck" depart="390.08" departLane="best" from="7973120#5" to="-230302495"/>
    <trip id="truck154" type="truck_truck" depart="392.63" departLane="best" from="882981166" to="46041120#4"/>
    <trip id="truck155" type="truck_truck" depart="395.18" departLane="best" from="-227496097#1" to="175782570"/>
    <trip id="truck156" type="truck_truck" depart="397.73" departLane="best" departSpeed="max" from="364097733" to="1226175100"/>
    <trip id="truck157" type="truck_truck" depart="400.28" departLane="best" departSpeed="max" from="251819525#0" to="225014655#5"/>
    <trip id="truck158" type="truck_truck" depart="402.83" departLane="best" from="157482093#0" to="236569080#0"/>
    <trip id="truck159" type="truck_truck" depart="405.38" departLane="best" from="7973122#0" to="351002183#11"/>
    <trip id="truck160" type="truck_truck" depart="407.93" departLane="best" from="1013012547" to="732484186"/>
    <trip id="truck161" type="truck_truck" depart="410.48" departLane="best" from="226958380#0" to="355365983#2"/>
    <trip id="truck162" type="truck_truck" depart="413.03" departLane="best" from="46041120#1" to="292074965#16"/>
    <trip id="truck163" type="truck_truck" depart="415.58" departLane="best" from="138943462#5" to="-175718553#2"/>
    <trip id="truck164" type="truck_truck" depart="418.13" departLane="best" from="292074964#1" to="13858884#3"/>
    <trip id="truck165" type="truck_truck" depart="420.68" departLane="best" from="-1149399001#0" to="607010196"/>
    <trip id="truck166" type="truck_truck" depart="423.23" departLane="best" from="1111709096#0" to="-16775630#2"/>
    <trip id="truck167" type="truck_truck" depart="425.78" departLane="best" from="7973122#0" to="292074973"/>
    <trip id="truck168" type="truck_truck" depart="428.33" departLane="best" from="684362357" to="259269376#1-AddedOnRampEdge"/>
    <trip id="truck169" type="truck_truck" depart="430.87" departLane="best" departSpeed="max" from="1082258228#0" to="229746975#2"/>
    <trip id="truck170" type="truck_truck" depart="433.42" departLane="best" from="16776434#1" to="236570788#0"/>
    <trip id="truck171" type="truck_truck" depart="435.97" departLane="best" from="29015099#0" to="187844372#2"/>
    <trip id="truck172" type="truck_truck" depart="438.52" departLane="best" from="175718550#1" to="-6228005#5"/>
    <trip id="truck173" type="truck_truck" depart="441.07" departLane="best" departSpeed="max" from="181418879#0" to="674870447#2"/>
    <trip id="truck174" type="truck_truck" depart="443.62" departLane="best" departSpeed="max" from="548302276" to="355365983#1"/>
    <trip id="truck175" type="truck_truck" depart="446.17" departLane="best" from="-21308292#1" to="-225014676#4"/>
    <trip id="truck176" type="truck_truck" depart="448.72" departLane="best" from="280277074#1" to="138943447#5"/>
    <trip id="truck177" type="truck_truck" depart="451.27" departLane="best" from="560686855#1" to="46041125#8"/>
    <trip id="truck178" type="truck_truck" depart="453.82" departLane="best" from="292074965#7" to="637107883#1"/>
    <trip id="truck179" type="truck_truck" depart="456.37" departLane="best" from="482038394#1" to="-1232718638#1"/>
    <trip id="truck180" type="truck_truck" depart="458.92" departLane="best" from="657272874#3" to="-19573436#7"/>
    <trip id="truck181" type="truck_truck" depart="461.47" departLane="best" from="607753794" to="176214937"/>
    <trip id="truck182" type="truck_truck" depart="464.02" departLane="best" from="-46041120#1" to="345751062#1"/>
    <trip id="truck183" type="truck_truck" depart="466.57" departLane="best" from="19573436#5" to="-7973123#0"/>
    <trip id="truck184" type="truck_truck" depart="469.12" departLane="best" from="29015104#2" to="-1054520441#0"/>
    <trip id="truck185" type="truck_truck" depart="471.67" departLane="best" from="46041125#8" to="5151618"/>
    <trip id="truck186" type="truck_truck" depart="474.22" departLane="best" from="-345760484#2" to="8161736#1"/>
    <trip id="truck188" type="truck_truck" depart="479.32" departLane="best" from="759536978" to="607010196"/>
    <trip id="truck189" type="truck_truck" depart="481.87" departLane="best" from="292074965#12" to="-954176189#3"/>
    <trip id="truck190" type="truck_truck" depart="484.42" departLane="best" from="24593119#0" to="8018915"/>
    <trip id="truck191" type="truck_truck" depart="486.96" departLane="best" from="657272926#3" to="259269376#0"/>
    <trip id="truck192" type="truck_truck" depart="489.51" departLane="best" from="-355365983#2" to="21304558#0"/>
    <trip id="truck193" type="truck_truck" depart="492.06" departLane="best" from="561966868" to="229746975#1"/>
    <trip id="truck194" type="truck_truck" depart="494.61" departLane="best" from="674870447#1" to="46041120#4"/>
    <trip id="truck195" type="truck_truck" depart="497.16" departLane="best" from="181418879#3" to="974589447"/>
    <trip id="truck197" type="truck_truck" depart="502.26" departLane="best" from="5133376#0" to="226863633#2"/>
    <trip id="truck198" type="truck_truck" depart="504.81" departLane="best" from="279381243#7" to="1017601814#0"/>
    <trip id="truck199" type="truck_truck" depart="507.36" departLane="best" from="-19607882" to="1089560861#1"/>
    <trip id="truck200" type="truck_truck" depart="509.91" departLane="best" from="996059494#0" to="1239668582"/>
    <trip id="truck201" type="truck_truck" depart="512.46" departLane="best" from="-6228005#5" to="236570786"/>
    <trip id="truck202" type="truck_truck" depart="515.01" departLane="best" from="351002182#1" to="-16775630#1"/>
    <trip id="truck203" type="truck_truck" depart="517.56" departLane="best" from="16763485#0" to="-589705895#2"/>
    <trip id="truck204" type="truck_truck" depart="520.11" departLane="best" from="16764114" to="687468227#1"/>
    <trip id="truck205" type="truck_truck" depart="522.66" departLane="best" from="236570790#3" to="345751062#1"/>
    <trip id="truck206" type="truck_truck" depart="525.21" departLane="best" from="6170178#3" to="492547872#7"/>
    <trip id="truck207" type="truck_truck" depart="527.76" departLane="best" from="156793846#2" to="-1054520441#0"/>
    <trip id="truck208" type="truck_truck" depart="530.31" departLane="best" from="138943449#11" to="46041231"/>
    <trip id="truck210" type="truck_truck" depart="535.41" departLane="best" from="16763485#5" to="46041125#15"/>
    <trip id="truck211" type="truck_truck" depart="537.96" departLane="best" from="226958385#1" to="248547128#3"/>
    <trip id="truck212" type="truck_truck" depart="540.51" departLane="best" from="589705895#0" to="6271239#2"/>
    <trip id="truck213" type="truck_truck" depart="543.06" departLane="best" from="-17065584#3" to="-127729926#4"/>
    <trip id="truck214" type="truck_truck" depart="545.60" departLane="best" from="-16370002#0" to="345760484#0"/>
    <trip id="truck215" type="truck_truck" depart="548.15" departLane="best" from="180870218#2" to="-24733230#4"/>
    <trip id="truck216" type="truck_truck" depart="550.70" departLane="best" from="279381241#0" to="-127729926#0"/>
    <trip id="truck217" type="truck_truck" depart="553.25" departLane="best" from="16181909" to="23017698"/>
    <trip id="truck218" type="truck_truck" depart="555.80" departLane="best" from="-13858884#0" to="287958495#1"/>
    <trip id="truck219" type="truck_truck" depart="558.35" departLane="best" from="24733230#7" to="-18677910#1"/>
    <trip id="truck220" type="truck_truck" depart="560.90" departLane="best" from="-16182736#1" to="16120724#2"/>
    <trip id="truck221" type="truck_truck" depart="563.45" departLane="best" from="-55065902#0" to="-127729926#4"/>
    <trip id="truck222" type="truck_truck" depart="566.00" departLane="best" from="-492547872#3" to="16120724#2"/>
    <trip id="truck223" type="truck_truck" depart="568.55" departLane="best" from="46041173#0" to="567506060#1"/>
    <trip id="truck224" type="truck_truck" depart="571.10" departLane="best" from="-7973120#2" to="-19526831#3"/>
    <trip id="truck225" type="truck_truck" depart="573.65" departLane="best" from="-1222109253#1" to="-226968119#7"/>
    <trip id="truck226" type="truck_truck" depart="576.20" departLane="best" from="996059494#2" to="138943462#4"/>
    <trip id="truck227" type="truck_truck" depart="578.75" departLane="best" departSpeed="max" from="28850117#0" to="46041231"/>
    <trip id="truck228" type="truck_truck" depart="581.30" departLane="best" from="8018915" to="-552894429#6"/>
    <trip id="truck229" type="truck_truck" depart="583.85" departLane="best" from="-1226175101" to="-30303388#2"/>
    <trip id="truck230" type="truck_truck" depart="586.40" departLane="best" from="-236570790#1" to="292074965#14"/>
    <trip id="truck231" type="truck_truck" depart="588.95" departLane="best" from="-229746975#2" to="-6234788#4"/>
    <trip id="truck232" type="truck_truck" depart="591.50" departLane="best" from="-345760484#0" to="5120764#1"/>
    <trip id="truck233" type="truck_truck" depart="594.05" departLane="best" from="-331293887#1" to="254622402#1"/>
    <trip id="truck234" type="truck_truck" depart="596.60" departLane="best" from="46041125#2" to="229746975#2"/>
    <trip id="truck235" type="truck_truck" depart="599.15" departLane="best" from="227213450" to="1232718640#1"/>
    <trip id="truck236" type="truck_truck" depart="601.69" departLane="best" from="1146137151#1" to="292074973"/>
    <trip id="truck238" type="truck_truck" depart="606.79" departLane="best" departSpeed="max" from="35397326" to="-181418879#0"/>
    <trip id="truck239" type="truck_truck" depart="609.34" departLane="best" from="331293889#0" to="279381243#6"/>
    <trip id="truck240" type="truck_truck" depart="611.89" departLane="best" from="226968119#3" to="5151622#1"/>
    <trip id="truck241" type="truck_truck" depart="614.44" departLane="best" from="607753795" to="24733239#2"/>
    <trip id="truck242" type="truck_truck" depart="616.99" departLane="best" from="-230979882#6" to="943027532#2"/>
    <trip id="truck243" type="truck_truck" depart="619.54" departLane="best" from="517156294" to="138943459#1"/>
    <trip id="truck244" type="truck_truck" depart="622.09" departLane="best" from="16776376#1" to="157481495#0"/>
    <trip id="truck245" type="truck_truck" depart="624.64" departLane="best" from="19725510#2" to="138943452#1"/>
    <trip id="truck246" type="truck_truck" depart="627.19" departLane="best" from="607753794" to="560686857#1"/>
    <trip id="truck247" type="truck_truck" depart="629.74" departLane="best" from="226986353#1" to="858183285"/>
    <trip id="truck248" type="truck_truck" depart="632.29" departLane="best" from="28593268#1" to="560686867#0"/>
    <trip id="truck249" type="truck_truck" depart="634.84" departLane="best" from="351002183#1" to="175782573#1"/>
    <trip id="truck251" type="truck_truck" depart="639.94" departLane="best" from="226958380#0" to="19725490#8"/>
    <trip id="truck252" type="truck_truck" depart="642.49" departLane="best" from="17065584#2" to="-362040638"/>
    <trip id="truck253" type="truck_truck" depart="645.04" departLane="best" from="-958856730#7" to="607754739"/>
    <trip id="truck254" type="truck_truck" depart="647.59" departLane="best" from="561966868" to="19607882"/>
    <trip id="truck255" type="truck_truck" depart="650.14" departLane="best" from="6272489" to="-7973123#0"/>
    <trip id="truck256" type="truck_truck" depart="652.69" departLane="best" from="180870212#0" to="259118687#4"/>
    <trip id="truck257" type="truck_truck" depart="655.24" departLane="best" from="156641038#9" to="-127729926#4"/>
    <trip id="truck258" type="truck_truck" depart="657.78" departLane="best" from="6168347" to="-492547869"/>
    <trip id="truck260" type="truck_truck" depart="662.88" departLane="best" from="-345760484#3" to="1017601817#0"/>
    <trip id="truck261" type="truck_truck" depart="665.43" departLane="best" from="-1149399002#2" to="7982500#8"/>
    <trip id="truck262" type="truck_truck" depart="667.98" departLane="best" from="-216613208#1" to="355365983#3"/>
    <trip id="truck263" type="truck_truck" depart="670.53" departLane="best" from="331293891" to="118871348#1"/>
    <trip id="truck264" type="truck_truck" depart="673.08" departLane="best" from="236570788#2" to="-19573436#4"/>